
     RDKit          3D

222228  0  0  0  0  0  0  0  0999 V2000
   -3.6257    2.8430    5.9435 C   0  0  0  0  0  0  0  0  0  0  0  0
   -2.6773    1.8934    6.1611 C   0  0  0  0  0  0  0  0  0  0  0  0
   -2.9868    2.0720    7.6218 C   0  0  0  0  0  0  0  0  0  0  0  0
   -3.4882    3.3554    7.1700 N   0  0  0  0  0  0  0  0  0  0  0  0
   -2.7023    4.5181    7.3114 C   0  0  0  0  0  0  0  0  0  0  0  0
   -1.3743    4.6841    7.5353 C   0  0  0  0  0  0  0  0  0  0  0  0
   -0.8040    6.0814    7.6367 C   0  0  0  0  0  0  0  0  0  0  0  0
   -0.7122    6.6846    6.3427 O   0  0  0  0  0  0  0  0  0  0  0  0
    0.6098    6.6423    5.8087 C   0  0  0  0  0  0  0  0  0  0  0  0
    0.6156    7.0835    4.3400 C   0  0  0  0  0  0  0  0  0  0  0  0
   -0.1074    6.2491    3.4293 O   0  0  0  0  0  0  0  0  0  0  0  0
    0.2269    4.8615    3.5002 C   0  0  0  0  0  0  0  0  0  0  0  0
   -0.1065    4.1639    2.1808 C   0  0  0  0  0  0  0  0  0  0  0  0
   -1.5243    4.0329    2.0192 O   0  0  0  0  0  0  0  0  0  0  0  0
   -1.8573    3.2288    0.8845 C   0  0  0  0  0  0  0  0  0  0  0  0
   -1.9954    1.7655    1.2907 C   0  0  0  0  0  0  0  0  0  0  0  0
   -2.2079    0.9253    0.1582 O   0  0  0  0  0  0  0  0  0  0  0  0
   -2.5957   -0.3836    0.5725 C   0  0  0  0  0  0  0  0  0  0  0  0
   -2.5092   -1.4110   -0.5508 C   0  0  0  0  0  0  0  0  0  0  0  0
   -2.9491   -2.6952   -0.0927 O   0  0  0  0  0  0  0  0  0  0  0  0
   -4.3471   -2.8914   -0.3512 C   0  0  0  0  0  0  0  0  0  0  0  0
   -4.8935   -4.0606    0.4639 C   0  0  0  0  0  0  0  0  0  0  0  0
   -4.1119   -5.2497    0.3387 O   0  0  0  0  0  0  0  0  0  0  0  0
   -4.4431   -5.8495   -0.9565 O   0  0  0  0  0  0  0  0  0  0  0  0
   -3.2088   -5.8967   -1.6844 C   0  0  2  0  0  0  0  0  0  0  0  0
   -3.1743   -4.7985   -2.6030 O   0  0  0  0  0  0  0  0  0  0  0  0
   -1.8909   -4.6688   -3.2252 C   0  0  2  0  0  0  0  0  0  0  0  0
   -1.9257   -3.3726   -4.0398 C   0  0  0  0  0  0  0  0  0  0  0  0
   -2.9288   -3.4435   -5.0525 O   0  0  0  0  0  0  0  0  0  0  0  0
   -1.5903   -5.9091   -4.0837 C   0  0  1  0  0  0  0  0  0  0  0  0
   -0.2343   -5.9191   -4.5497 O   0  0  0  0  0  0  0  0  0  0  0  0
   -1.7819   -7.1892   -3.2574 C   0  0  2  0  0  0  0  0  0  0  0  0
   -1.7234   -8.3437   -4.1156 O   0  0  0  0  0  0  0  0  0  0  0  0
   -3.0995   -7.2068   -2.4781 C   0  0  1  0  0  0  0  0  0  0  0  0
   -3.1016   -8.3653   -1.6288 O   0  0  0  0  0  0  0  0  0  0  0  0
   -0.4915    3.6336    7.7386 N   0  0  0  0  0  0  0  0  0  0  0  0
    0.2136    3.3554    6.7453 N   0  0  0  0  0  0  0  0  0  0  0  0
   -1.6784    1.1940    5.2167 C   0  0  0  0  0  0  0  0  0  0  0  0
   -0.4693    0.7032    5.5652 C   0  0  0  0  0  0  0  0  0  0  0  0
    0.1128    0.9308    6.9522 C   0  0  0  0  0  0  0  0  0  0  0  0
    0.9293    2.1826    6.9558 N   0  0  0  0  0  0  0  0  0  0  0  0
    2.2421    2.1789    6.4778 C   0  0  0  0  0  0  0  0  0  0  0  0
    3.1169    1.1959    6.1814 C   0  0  0  0  0  0  0  0  0  0  0  0
    4.5323    1.5478    5.7795 C   0  0  0  0  0  0  0  0  0  0  0  0
    4.7349    1.4706    4.3684 O   0  0  0  0  0  0  0  0  0  0  0  0
    4.2870    2.6352    3.6642 C   0  0  0  0  0  0  0  0  0  0  0  0
    4.9954    2.7048    2.3113 C   0  0  0  0  0  0  0  0  0  0  0  0
    4.3898    1.7919    1.3909 O   0  0  0  0  0  0  0  0  0  0  0  0
    5.2816    1.3803    0.3431 C   0  0  0  0  0  0  0  0  0  0  0  0
    5.6574    2.5097   -0.6248 C   0  0  0  0  0  0  0  0  0  0  0  0
    6.5966    3.3909    0.0048 O   0  0  0  0  0  0  0  0  0  0  0  0
    7.2211    4.3116   -0.8967 C   0  0  0  0  0  0  0  0  0  0  0  0
    6.2435    5.3188   -1.5052 C   0  0  0  0  0  0  0  0  0  0  0  0
    5.6747    4.7574   -2.6911 O   0  0  0  0  0  0  0  0  0  0  0  0
    4.6526    5.5931   -3.2446 C   0  0  0  0  0  0  0  0  0  0  0  0
    4.2212    5.0169   -4.5915 C   0  0  0  0  0  0  0  0  0  0  0  0
    3.4635    3.8199   -4.3824 O   0  0  0  0  0  0  0  0  0  0  0  0
    3.2598    3.1147   -5.6054 C   0  0  0  0  0  0  0  0  0  0  0  0
    2.4298    1.8683   -5.3419 C   0  0  0  0  0  0  0  0  0  0  0  0
    2.3060    1.1303   -6.5560 O   0  0  0  0  0  0  0  0  0  0  0  0
    1.5921   -0.0975   -6.2071 O   0  0  0  0  0  0  0  0  0  0  0  0
    2.5322   -1.1734   -6.3739 C   0  0  2  0  0  0  0  0  0  0  0  0
    2.9798   -1.2831   -7.7312 O   0  0  0  0  0  0  0  0  0  0  0  0
    1.9604   -1.6041   -8.6819 C   0  0  2  0  0  0  0  0  0  0  0  0
    1.4771   -0.3556   -9.4291 C   0  0  0  0  0  0  0  0  0  0  0  0
    0.6439   -0.7301  -10.5278 O   0  0  0  0  0  0  0  0  0  0  0  0
    0.7739   -2.3893   -8.0961 C   0  0  1  0  0  0  0  0  0  0  0  0
    0.1124   -3.1715   -9.0988 O   0  0  0  0  0  0  0  0  0  0  0  0
    1.3040   -3.3138   -7.0058 C   0  0  2  0  0  0  0  0  0  0  0  0
    0.2438   -4.1668   -6.5323 O   0  0  0  0  0  0  0  0  0  0  0  0
    1.8875   -2.4824   -5.8563 C   0  0  1  0  0  0  0  0  0  0  0  0
    2.8538   -3.2876   -5.1576 O   0  0  0  0  0  0  0  0  0  0  0  0
    2.8968   -0.1406    6.4158 N   0  0  0  0  0  0  0  0  0  0  0  0
    2.1760   -0.8747    5.7022 N   0  0  0  0  0  0  0  0  0  0  0  0
    0.3901    0.1883    4.4925 C   0  0  0  0  0  0  0  0  0  0  0  0
    1.5713   -0.4661    4.5343 C   0  0  0  0  0  0  0  0  0  0  0  0
    2.2745   -0.9971    3.2798 C   0  0  0  0  0  0  0  0  0  0  0  0
    1.4445   -1.0116    2.0550 N   0  0  0  0  0  0  0  0  0  0  0  0
    1.5525    0.0338    1.1208 C   0  0  0  0  0  0  0  0  0  0  0  0
    1.4712    0.0365   -0.2272 C   0  0  0  0  0  0  0  0  0  0  0  0
    1.6241    1.3049   -1.0543 C   0  0  0  0  0  0  0  0  0  0  0  0
    0.3743    1.8868   -1.4500 O   0  0  0  0  0  0  0  0  0  0  0  0
   -0.3589    1.1031   -2.3954 C   0  0  0  0  0  0  0  0  0  0  0  0
   -1.6650    1.8125   -2.7664 C   0  0  0  0  0  0  0  0  0  0  0  0
   -2.6449    0.8463   -3.1605 O   0  0  0  0  0  0  0  0  0  0  0  0
   -3.9429    1.4120   -3.3753 C   0  0  0  0  0  0  0  0  0  0  0  0
   -4.7668    1.6293   -2.0909 C   0  0  0  0  0  0  0  0  0  0  0  0
   -5.3389    0.3935   -1.6339 O   0  0  0  0  0  0  0  0  0  0  0  0
   -6.5056    0.5667   -0.8130 C   0  0  0  0  0  0  0  0  0  0  0  0
   -6.2057    0.9724    0.6377 C   0  0  0  0  0  0  0  0  0  0  0  0
   -5.9838   -0.1955    1.4441 O   0  0  0  0  0  0  0  0  0  0  0  0
   -5.6788    0.1439    2.8045 C   0  0  0  0  0  0  0  0  0  0  0  0
   -5.2319   -1.0996    3.5830 C   0  0  0  0  0  0  0  0  0  0  0  0
   -3.9351   -1.5191    3.1393 O   0  0  0  0  0  0  0  0  0  0  0  0
   -3.3774   -2.5404    3.9731 C   0  0  0  0  0  0  0  0  0  0  0  0
   -2.1098   -3.1202    3.3409 C   0  0  0  0  0  0  0  0  0  0  0  0
   -1.0926   -2.1181    3.2888 O   0  0  0  0  0  0  0  0  0  0  0  0
    0.1655   -2.8183    3.0130 O   0  0  0  0  0  0  0  0  0  0  0  0
    0.7138   -2.2672    1.8012 C   0  0  2  0  0  0  0  0  0  0  0  0
    1.5962   -3.2237    1.1846 O   0  0  0  0  0  0  0  0  0  0  0  0
    0.8951   -4.3552    0.6376 C   0  0  2  0  0  0  0  0  0  0  0  0
    0.8612   -5.4812    1.6891 C   0  0  0  0  0  0  0  0  0  0  0  0
    2.1871   -5.8961    2.0135 O   0  0  0  0  0  0  0  0  0  0  0  0
    1.5844   -4.8644   -0.6655 C   0  0  1  0  0  0  0  0  0  0  0  0
    0.8278   -5.9753   -1.1974 O   0  0  0  0  0  0  0  0  0  0  0  0
    1.6444   -3.7940   -1.7796 C   0  0  2  0  0  0  0  0  0  0  0  0
    1.7660   -4.4378   -3.0740 O   0  0  0  0  0  0  0  0  0  0  0  0
    2.8155   -2.7930   -1.5613 C   0  0  1  0  0  0  0  0  0  0  0  0
    3.9169   -3.1157   -2.4181 O   0  0  0  0  0  0  0  0  0  0  0  0
    1.4015   -1.1614   -0.8900 N   0  0  0  0  0  0  0  0  0  0  0  0
    2.3497   -1.3927   -1.6702 N   0  0  0  0  0  0  0  0  0  0  0  0
   -3.9327    3.2973    4.9949 H   0  0  0  0  0  0  0  0  0  0  0  0
   -3.7900    1.4400    8.0286 H   0  0  0  0  0  0  0  0  0  0  0  0
   -2.2146    2.1314    8.3873 H   0  0  0  0  0  0  0  0  0  0  0  0
   -3.3274    5.3936    7.1455 H   0  0  0  0  0  0  0  0  0  0  0  0
   -1.4806    6.7059    8.2323 H   0  0  0  0  0  0  0  0  0  0  0  0
    0.1613    6.0915    8.1586 H   0  0  0  0  0  0  0  0  0  0  0  0
    1.0284    5.6383    5.9051 H   0  0  0  0  0  0  0  0  0  0  0  0
    1.2365    7.3295    6.3886 H   0  0  0  0  0  0  0  0  0  0  0  0
    1.6489    7.1567    3.9823 H   0  0  0  0  0  0  0  0  0  0  0  0
    0.1682    8.0800    4.2606 H   0  0  0  0  0  0  0  0  0  0  0  0
   -0.3502    4.4113    4.3122 H   0  0  0  0  0  0  0  0  0  0  0  0
    1.2997    4.7475    3.6925 H   0  0  0  0  0  0  0  0  0  0  0  0
    0.2880    4.7450    1.3397 H   0  0  0  0  0  0  0  0  0  0  0  0
    0.3541    3.1703    2.1832 H   0  0  0  0  0  0  0  0  0  0  0  0
   -2.8198    3.5818    0.4977 H   0  0  0  0  0  0  0  0  0  0  0  0
   -1.1323    3.3670    0.0765 H   0  0  0  0  0  0  0  0  0  0  0  0
   -2.8307    1.6752    1.9938 H   0  0  0  0  0  0  0  0  0  0  0  0
   -1.0924    1.4334    1.8082 H   0  0  0  0  0  0  0  0  0  0  0  0
   -3.6172   -0.3324    0.9362 H   0  0  0  0  0  0  0  0  0  0  0  0
   -1.9675   -0.7100    1.4037 H   0  0  0  0  0  0  0  0  0  0  0  0
   -1.4657   -1.5280   -0.8524 H   0  0  0  0  0  0  0  0  0  0  0  0
   -3.0576   -1.0953   -1.4429 H   0  0  0  0  0  0  0  0  0  0  0  0
   -4.4789   -3.0722   -1.4212 H   0  0  0  0  0  0  0  0  0  0  0  0
   -4.9139   -1.9941   -0.0916 H   0  0  0  0  0  0  0  0  0  0  0  0
   -5.9364   -4.2696    0.2013 H   0  0  0  0  0  0  0  0  0  0  0  0
   -4.8695   -3.7964    1.5254 H   0  0  0  0  0  0  0  0  0  0  0  0
   -2.3727   -5.8231   -0.9744 H   0  0  0  0  0  0  0  0  0  0  0  0
   -1.1310   -4.5483   -2.4476 H   0  0  0  0  0  0  0  0  0  0  0  0
   -2.1730   -2.5210   -3.3980 H   0  0  0  0  0  0  0  0  0  0  0  0
   -0.9646   -3.1694   -4.5124 H   0  0  0  0  0  0  0  0  0  0  0  0
   -3.7687   -3.5745   -4.5706 H   0  0  0  0  0  0  0  0  0  0  0  0
   -2.2459   -5.9597   -4.9614 H   0  0  0  0  0  0  0  0  0  0  0  0
   -0.1541   -5.2306   -5.2513 H   0  0  0  0  0  0  0  0  0  0  0  0
   -0.9452   -7.3164   -2.5606 H   0  0  0  0  0  0  0  0  0  0  0  0
   -0.9191   -8.2122   -4.6573 H   0  0  0  0  0  0  0  0  0  0  0  0
   -3.9501   -7.3135   -3.1619 H   0  0  0  0  0  0  0  0  0  0  0  0
   -2.8807   -9.1110   -2.2216 H   0  0  0  0  0  0  0  0  0  0  0  0
   -1.9484    1.2562    4.1674 H   0  0  0  0  0  0  0  0  0  0  0  0
   -0.6662    1.0108    7.7084 H   0  0  0  0  0  0  0  0  0  0  0  0
    0.6710    0.0696    7.3238 H   0  0  0  0  0  0  0  0  0  0  0  0
    2.5703    3.2062    6.3316 H   0  0  0  0  0  0  0  0  0  0  0  0
    5.2221    0.8293    6.2388 H   0  0  0  0  0  0  0  0  0  0  0  0
    4.8390    2.5312    6.1575 H   0  0  0  0  0  0  0  0  0  0  0  0
    4.5413    3.5349    4.2353 H   0  0  0  0  0  0  0  0  0  0  0  0
    3.2015    2.5744    3.5342 H   0  0  0  0  0  0  0  0  0  0  0  0
    6.0572    2.4696    2.4475 H   0  0  0  0  0  0  0  0  0  0  0  0
    4.8845    3.7145    1.9035 H   0  0  0  0  0  0  0  0  0  0  0  0
    4.7542    0.6004   -0.2156 H   0  0  0  0  0  0  0  0  0  0  0  0
    6.1735    0.9256    0.7892 H   0  0  0  0  0  0  0  0  0  0  0  0
    4.7590    3.0738   -0.8935 H   0  0  0  0  0  0  0  0  0  0  0  0
    6.1125    2.0764   -1.5220 H   0  0  0  0  0  0  0  0  0  0  0  0
    7.9571    4.8566   -0.2967 H   0  0  0  0  0  0  0  0  0  0  0  0
    7.7622    3.7516   -1.6677 H   0  0  0  0  0  0  0  0  0  0  0  0
    6.7858    6.2271   -1.7891 H   0  0  0  0  0  0  0  0  0  0  0  0
    5.4505    5.5689   -0.7917 H   0  0  0  0  0  0  0  0  0  0  0  0
    3.8064    5.6248   -2.5497 H   0  0  0  0  0  0  0  0  0  0  0  0
    5.0520    6.6025   -3.3912 H   0  0  0  0  0  0  0  0  0  0  0  0
    3.5894    5.7381   -5.1206 H   0  0  0  0  0  0  0  0  0  0  0  0
    5.1071    4.7910   -5.1964 H   0  0  0  0  0  0  0  0  0  0  0  0
    2.7477    3.7579   -6.3311 H   0  0  0  0  0  0  0  0  0  0  0  0
    4.2267    2.8289   -6.0372 H   0  0  0  0  0  0  0  0  0  0  0  0
    1.4344    2.1488   -4.9813 H   0  0  0  0  0  0  0  0  0  0  0  0
    2.9069    1.2513   -4.5717 H   0  0  0  0  0  0  0  0  0  0  0  0
    3.4139   -0.9457   -5.7634 H   0  0  0  0  0  0  0  0  0  0  0  0
    2.4450   -2.2446   -9.4309 H   0  0  0  0  0  0  0  0  0  0  0  0
    2.3215    0.2360   -9.7997 H   0  0  0  0  0  0  0  0  0  0  0  0
    0.8935    0.2972   -8.7733 H   0  0  0  0  0  0  0  0  0  0  0  0
    1.2324   -0.8533  -11.2957 H   0  0  0  0  0  0  0  0  0  0  0  0
    0.0126   -1.7241   -7.6703 H   0  0  0  0  0  0  0  0  0  0  0  0
   -0.1612   -2.5326   -9.7921 H   0  0  0  0  0  0  0  0  0  0  0  0
    2.0591   -3.9948   -7.4179 H   0  0  0  0  0  0  0  0  0  0  0  0
   -0.2721   -4.3675   -7.3461 H   0  0  0  0  0  0  0  0  0  0  0  0
    1.1140   -2.2386   -5.1190 H   0  0  0  0  0  0  0  0  0  0  0  0
    2.3353   -4.0093   -4.7303 H   0  0  0  0  0  0  0  0  0  0  0  0
   -0.0209    0.3538    3.4996 H   0  0  0  0  0  0  0  0  0  0  0  0
    3.1736   -0.3932    3.1061 H   0  0  0  0  0  0  0  0  0  0  0  0
    2.6387   -2.0146    3.4758 H   0  0  0  0  0  0  0  0  0  0  0  0
    1.7743    0.9758    1.6211 H   0  0  0  0  0  0  0  0  0  0  0  0
    2.1383    2.0693   -0.4605 H   0  0  0  0  0  0  0  0  0  0  0  0
    2.2476    1.1472   -1.9418 H   0  0  0  0  0  0  0  0  0  0  0  0
    0.2437    0.9408   -3.2952 H   0  0  0  0  0  0  0  0  0  0  0  0
   -0.5876    0.1239   -1.9760 H   0  0  0  0  0  0  0  0  0  0  0  0
   -1.4801    2.5008   -3.5995 H   0  0  0  0  0  0  0  0  0  0  0  0
   -2.0338    2.4103   -1.9300 H   0  0  0  0  0  0  0  0  0  0  0  0
   -4.4789    0.7145   -4.0278 H   0  0  0  0  0  0  0  0  0  0  0  0
   -3.8341    2.3585   -3.9176 H   0  0  0  0  0  0  0  0  0  0  0  0
   -5.5729    2.3319   -2.3309 H   0  0  0  0  0  0  0  0  0  0  0  0
   -4.1584    2.0505   -1.2884 H   0  0  0  0  0  0  0  0  0  0  0  0
   -7.0329   -0.3934   -0.8213 H   0  0  0  0  0  0  0  0  0  0  0  0
   -7.1650    1.3048   -1.2837 H   0  0  0  0  0  0  0  0  0  0  0  0
   -7.0762    1.4964    1.0476 H   0  0  0  0  0  0  0  0  0  0  0  0
   -5.3294    1.6253    0.6915 H   0  0  0  0  0  0  0  0  0  0  0  0
   -4.8815    0.8939    2.8252 H   0  0  0  0  0  0  0  0  0  0  0  0
   -6.5806    0.5610    3.2651 H   0  0  0  0  0  0  0  0  0  0  0  0
   -5.9375   -1.9217    3.4219 H   0  0  0  0  0  0  0  0  0  0  0  0
   -5.1849   -0.8565    4.6503 H   0  0  0  0  0  0  0  0  0  0  0  0
   -4.1117   -3.3424    4.1068 H   0  0  0  0  0  0  0  0  0  0  0  0
   -3.1403   -2.0968    4.9465 H   0  0  0  0  0  0  0  0  0  0  0  0
   -1.7561   -3.9618    3.9465 H   0  0  0  0  0  0  0  0  0  0  0  0
   -2.3037   -3.4652    2.3226 H   0  0  0  0  0  0  0  0  0  0  0  0
   -0.1134   -2.0655    1.1136 H   0  0  0  0  0  0  0  0  0  0  0  0
   -0.1419   -4.0910    0.3908 H   0  0  0  0  0  0  0  0  0  0  0  0
    0.3834   -5.1665    2.6188 H   0  0  0  0  0  0  0  0  0  0  0  0
    0.3125   -6.3535    1.3218 H   0  0  0  0  0  0  0  0  0  0  0  0
    2.6524   -5.0958    2.3259 H   0  0  0  0  0  0  0  0  0  0  0  0
    2.6018   -5.2244   -0.4704 H   0  0  0  0  0  0  0  0  0  0  0  0
    1.1724   -6.7755   -0.7526 H   0  0  0  0  0  0  0  0  0  0  0  0
    0.6762   -3.2842   -1.8111 H   0  0  0  0  0  0  0  0  0  0  0  0
    1.2397   -5.2672   -2.9976 H   0  0  0  0  0  0  0  0  0  0  0  0
    3.2247   -2.8988   -0.5518 H   0  0  0  0  0  0  0  0  0  0  0  0
    3.5247   -3.2287   -3.3080 H   0  0  0  0  0  0  0  0  0  0  0  0
  1  2  2  0
  2  3  1  0
  3  4  1  0
  4  5  1  0
  5  6  2  3
  6  7  1  0
  7  8  1  0
  8  9  1  0
  9 10  1  0
 10 11  1  0
 11 12  1  0
 12 13  1  0
 13 14  1  0
 14 15  1  0
 15 16  1  0
 16 17  1  0
 17 18  1  0
 18 19  1  0
 19 20  1  0
 20 21  1  0
 21 22  1  0
 22 23  1  0
 23 24  1  0
 24 25  1  0
 25 26  1  0
 26 27  1  0
 27 28  1  0
 28 29  1  0
 27 30  1  0
 30 31  1  0
 30 32  1  0
 32 33  1  0
 32 34  1  0
 34 35  1  0
  6 36  1  0
 36 37  2  3
  2 38  1  0
 38 39  2  3
 39 40  1  0
 40 41  1  0
 41 42  1  0
 42 43  2  3
 43 44  1  0
 44 45  1  0
 45 46  1  0
 46 47  1  0
 47 48  1  0
 48 49  1  0
 49 50  1  0
 50 51  1  0
 51 52  1  0
 52 53  1  0
 53 54  1  0
 54 55  1  0
 55 56  1  0
 56 57  1  0
 57 58  1  0
 58 59  1  0
 59 60  1  0
 60 61  1  0
 61 62  1  0
 62 63  1  0
 63 64  1  0
 64 65  1  0
 65 66  1  0
 64 67  1  0
 67 68  1  0
 67 69  1  0
 69 70  1  0
 69 71  1  0
 71 72  1  0
 43 73  1  0
 73 74  2  3
 39 75  1  0
 75 76  2  3
 76 77  1  0
 77 78  1  0
 78 79  1  0
 79 80  2  3
 80 81  1  0
 81 82  1  0
 82 83  1  0
 83 84  1  0
 84 85  1  0
 85 86  1  0
 86 87  1  0
 87 88  1  0
 88 89  1  0
 89 90  1  0
 90 91  1  0
 91 92  1  0
 92 93  1  0
 93 94  1  0
 94 95  1  0
 95 96  1  0
 96 97  1  0
 97 98  1  0
 98 99  1  0
 99100  1  0
100101  1  0
101102  1  0
102103  1  0
101104  1  0
104105  1  0
104106  1  0
106107  1  0
106108  1  0
108109  1  0
 80110  1  0
110111  2  3
  4  1  1  0
 34 25  1  0
 41 37  1  0
 71 62  1  0
 76 74  1  0
 99 78  1  0
111108  1  0
  1112  1  0
  3113  1  0
  3114  1  0
  5115  1  0
  7116  1  0
  7117  1  0
  9118  1  0
  9119  1  0
 10120  1  0
 10121  1  0
 12122  1  0
 12123  1  0
 13124  1  0
 13125  1  0
 15126  1  0
 15127  1  0
 16128  1  0
 16129  1  0
 18130  1  0
 18131  1  0
 19132  1  0
 19133  1  0
 21134  1  0
 21135  1  0
 22136  1  0
 22137  1  0
 25138  1  1
 27139  1  1
 28140  1  0
 28141  1  0
 29142  1  0
 30143  1  6
 31144  1  0
 32145  1  1
 33146  1  0
 34147  1  6
 35148  1  0
 38149  1  0
 40150  1  0
 40151  1  0
 42152  1  0
 44153  1  0
 44154  1  0
 46155  1  0
 46156  1  0
 47157  1  0
 47158  1  0
 49159  1  0
 49160  1  0
 50161  1  0
 50162  1  0
 52163  1  0
 52164  1  0
 53165  1  0
 53166  1  0
 55167  1  0
 55168  1  0
 56169  1  0
 56170  1  0
 58171  1  0
 58172  1  0
 59173  1  0
 59174  1  0
 62175  1  1
 64176  1  6
 65177  1  0
 65178  1  0
 66179  1  0
 67180  1  1
 68181  1  0
 69182  1  6
 70183  1  0
 71184  1  1
 72185  1  0
 75186  1  0
 77187  1  0
 77188  1  0
 79189  1  0
 81190  1  0
 81191  1  0
 83192  1  0
 83193  1  0
 84194  1  0
 84195  1  0
 86196  1  0
 86197  1  0
 87198  1  0
 87199  1  0
 89200  1  0
 89201  1  0
 90202  1  0
 90203  1  0
 92204  1  0
 92205  1  0
 93206  1  0
 93207  1  0
 95208  1  0
 95209  1  0
 96210  1  0
 96211  1  0
 99212  1  6
101213  1  6
102214  1  0
102215  1  0
103216  1  0
104217  1  1
105218  1  0
106219  1  6
107220  1  0
108221  1  1
109222  1  0
M  END
$$$$
