
     RDKit          3D

 12 12  0  0  0  0  0  0  0  0999 V2000
  574.4067  -32.0586  198.6556 O   0  0  0  0  0  0  0  0  0  0  0  0
  574.3309  -32.2988  200.0059 C   0  0  0  0  0  0  0  0  0  0  0  0
  572.9147  -32.1280  200.4968 C   0  0  1  0  0  0  0  0  0  0  0  0
  572.4137  -30.8776  200.2138 O   0  0  0  0  0  0  0  0  0  0  0  0
  571.2983  -30.6261  200.9637 C   0  0  0  0  0  0  0  0  0  0  0  0
  571.6898  -30.3194  202.2820 O   0  0  0  0  0  0  0  0  0  0  0  0
  570.2484  -31.6639  200.9484 C   0  0  2  0  0  0  0  0  0  0  0  0
  569.6539  -31.6957  202.2314 O   0  0  0  0  0  0  0  0  0  0  0  0
  570.6736  -33.0392  200.6158 C   0  0  1  0  0  0  0  0  0  0  0  0
  569.7133  -33.7363  199.8796 O   0  0  0  0  0  0  0  0  0  0  0  0
  571.9730  -33.1274  199.8544 C   0  0  2  0  0  0  0  0  0  0  0  0
  572.4743  -34.4165  199.8749 O   0  0  0  0  0  0  0  0  0  0  0  0
  1  2  1  0
  3  2  1  6
  3  4  1  0
  4  5  1  0
  5  6  1  0
  5  7  1  0
  7  8  1  1
  7  9  1  0
  9 10  1  6
  9 11  1  0
 11 12  1  1
 11  3  1  0
M  END
$$$$
