
     RDKit          3D

 12 12  0  0  0  0  0  0  0  0999 V2000
  585.7396  -30.3934  205.4084 O   0  0  0  0  0  0  0  0  0  0  0  0
  584.6322  -29.7584  204.9012 C   0  0  0  0  0  0  0  0  0  0  0  0
  584.6138  -28.3088  205.3187 C   0  0  1  0  0  0  0  0  0  0  0  0
  584.9771  -28.1426  206.6360 O   0  0  0  0  0  0  0  0  0  0  0  0
  584.6129  -26.9023  207.0818 C   0  0  0  0  0  0  0  0  0  0  0  0
  583.2246  -26.8892  207.3220 O   0  0  0  0  0  0  0  0  0  0  0  0
  585.0185  -25.7572  206.2429 C   0  0  2  0  0  0  0  0  0  0  0  0
  583.9977  -24.7813  206.3215 O   0  0  0  0  0  0  0  0  0  0  0  0
  585.2681  -26.0323  204.8128 C   0  0  1  0  0  0  0  0  0  0  0  0
  586.3089  -25.2616  204.2903 O   0  0  0  0  0  0  0  0  0  0  0  0
  585.5756  -27.4748  204.4957 C   0  0  2  0  0  0  0  0  0  0  0  0
  585.4625  -27.7201  203.1390 O   0  0  0  0  0  0  0  0  0  0  0  0
  1  2  1  0
  3  2  1  6
  3  4  1  0
  4  5  1  0
  5  6  1  0
  5  7  1  0
  7  8  1  6
  7  9  1  0
  9 10  1  1
  9 11  1  0
 11 12  1  6
 11  3  1  0
M  END
$$$$
