
     RDKit          3D

 12 12  0  0  0  0  0  0  0  0999 V2000
  585.1465  -24.2286  201.1234 O   0  0  0  0  0  0  0  0  0  0  0  0
  586.1825  -25.1305  201.1211 C   0  0  0  0  0  0  0  0  0  0  0  0
  586.1783  -25.9470  202.3897 C   0  0  1  0  0  0  0  0  0  0  0  0
  585.4752  -25.3326  203.4010 O   0  0  0  0  0  0  0  0  0  0  0  0
  585.7810  -25.8954  204.6091 C   0  0  0  0  0  0  0  0  0  0  0  0
  587.0458  -25.4340  205.0245 O   0  0  0  0  0  0  0  0  0  0  0  0
  585.6995  -27.3673  204.6879 C   0  0  2  0  0  0  0  0  0  0  0  0
  586.7193  -27.8102  205.5621 O   0  0  0  0  0  0  0  0  0  0  0  0
  585.8393  -28.1127  203.4199 C   0  0  1  0  0  0  0  0  0  0  0  0
  585.0369  -29.2548  203.3757 O   0  0  0  0  0  0  0  0  0  0  0  0
  585.5390  -27.3057  202.1812 C   0  0  2  0  0  0  0  0  0  0  0  0
  586.0082  -27.9435  201.0469 O   0  0  0  0  0  0  0  0  0  0  0  0
  1  2  1  0
  3  2  1  6
  3  4  1  0
  4  5  1  0
  5  6  1  0
  5  7  1  0
  7  8  1  1
  7  9  1  0
  9 10  1  1
  9 11  1  0
 11 12  1  6
 11  3  1  0
M  END
$$$$
