
     RDKit          3D

 12 12  0  0  0  0  0  0  0  0999 V2000
  580.4526  -44.3626  176.7352 O   0  0  0  0  0  0  0  0  0  0  0  0
  580.0449  -45.5246  176.1265 C   0  0  0  0  0  0  0  0  0  0  0  0
  578.8068  -46.0681  176.7955 C   0  0  1  0  0  0  0  0  0  0  0  0
  578.9610  -46.1848  178.1583 O   0  0  0  0  0  0  0  0  0  0  0  0
  577.9923  -46.9945  178.6836 C   0  0  0  0  0  0  0  0  0  0  0  0
  578.3093  -48.3369  178.3964 O   0  0  0  0  0  0  0  0  0  0  0  0
  576.5996  -46.6840  178.3047 C   0  0  2  0  0  0  0  0  0  0  0  0
  575.8970  -47.9072  178.2023 O   0  0  0  0  0  0  0  0  0  0  0  0
  576.4004  -45.9440  177.0415 C   0  0  1  0  0  0  0  0  0  0  0  0
  575.3312  -45.0479  177.1056 O   0  0  0  0  0  0  0  0  0  0  0  0
  577.6066  -45.1696  176.5709 C   0  0  2  0  0  0  0  0  0  0  0  0
  577.4685  -44.7909  175.2476 O   0  0  0  0  0  0  0  0  0  0  0  0
  1  2  1  0
  3  2  1  1
  3  4  1  0
  4  5  1  0
  5  6  1  0
  5  7  1  0
  7  8  1  6
  7  9  1  0
  9 10  1  1
  9 11  1  0
 11 12  1  6
 11  3  1  0
M  END
$$$$
