
     RDKit          3D

 12 12  0  0  0  0  0  0  0  0999 V2000
  585.7172  -21.7593  203.7294 O   0  0  0  0  0  0  0  0  0  0  0  0
  585.0439  -22.7307  203.0295 C   0  0  0  0  0  0  0  0  0  0  0  0
  585.3622  -24.0987  203.5803 C   0  0  1  0  0  0  0  0  0  0  0  0
  586.7124  -24.3657  203.5608 O   0  0  0  0  0  0  0  0  0  0  0  0
  586.9394  -25.7049  203.7178 C   0  0  0  0  0  0  0  0  0  0  0  0
  586.6537  -26.3651  202.5064 O   0  0  0  0  0  0  0  0  0  0  0  0
  586.2583  -26.3582  204.8531 C   0  0  2  0  0  0  0  0  0  0  0  0
  585.9151  -27.6708  204.4535 O   0  0  0  0  0  0  0  0  0  0  0  0
  585.0324  -25.7078  205.3604 C   0  0  1  0  0  0  0  0  0  0  0  0
  584.8942  -25.8256  206.7450 O   0  0  0  0  0  0  0  0  0  0  0  0
  584.9131  -24.2427  205.0210 C   0  0  2  0  0  0  0  0  0  0  0  0
  583.6213  -23.7901  205.2210 O   0  0  0  0  0  0  0  0  0  0  0  0
  1  2  1  0
  3  2  1  1
  3  4  1  0
  4  5  1  0
  5  6  1  0
  5  7  1  0
  7  8  1  6
  7  9  1  0
  9 10  1  1
  9 11  1  0
 11 12  1  6
 11  3  1  0
M  END
$$$$
