
     RDKit          3D

 12 12  0  0  0  0  0  0  0  0999 V2000
  584.7189  -31.4679  202.1339 O   0  0  0  0  0  0  0  0  0  0  0  0
  585.0306  -30.1324  202.2119 C   0  0  0  0  0  0  0  0  0  0  0  0
  585.0025  -29.6636  203.6455 C   0  0  1  0  0  0  0  0  0  0  0  0
  583.7296  -29.6683  204.1692 O   0  0  0  0  0  0  0  0  0  0  0  0
  583.6775  -28.9188  205.3117 C   0  0  0  0  0  0  0  0  0  0  0  0
  583.6762  -27.5529  204.9662 O   0  0  0  0  0  0  0  0  0  0  0  0
  584.7021  -29.2079  206.3345 C   0  0  2  0  0  0  0  0  0  0  0  0
  585.0394  -27.9875  206.9649 O   0  0  0  0  0  0  0  0  0  0  0  0
  585.9559  -29.8332  205.8656 C   0  0  1  0  0  0  0  0  0  0  0  0
  586.4813  -30.7420  206.7867 O   0  0  0  0  0  0  0  0  0  0  0  0
  585.8432  -30.5501  204.5430 C   0  0  2  0  0  0  0  0  0  0  0  0
  587.0933  -30.8096  204.0106 O   0  0  0  0  0  0  0  0  0  0  0  0
  1  2  1  0
  3  2  1  6
  3  4  1  0
  4  5  1  0
  5  6  1  0
  5  7  1  0
  7  8  1  6
  7  9  1  0
  9 10  1  1
  9 11  1  0
 11 12  1  6
 11  3  1  0
M  END
$$$$
