
     RDKit          3D

 12 12  0  0  0  0  0  0  0  0999 V2000
  584.9279  -31.9079  202.3736 O   0  0  0  0  0  0  0  0  0  0  0  0
  585.9932  -31.0895  202.6598 C   0  0  0  0  0  0  0  0  0  0  0  0
  585.6699  -30.1842  203.8226 C   0  0  1  0  0  0  0  0  0  0  0  0
  584.4197  -29.6195  203.7097 O   0  0  0  0  0  0  0  0  0  0  0  0
  584.2955  -28.5543  204.5580 C   0  0  0  0  0  0  0  0  0  0  0  0
  584.9901  -27.4534  204.0187 O   0  0  0  0  0  0  0  0  0  0  0  0
  584.6772  -28.7867  205.9650 C   0  0  2  0  0  0  0  0  0  0  0  0
  585.2556  -27.5939  206.4583 O   0  0  0  0  0  0  0  0  0  0  0  0
  585.6269  -29.8881  206.2261 C   0  0  1  0  0  0  0  0  0  0  0  0
  585.3644  -30.5518  207.4265 O   0  0  0  0  0  0  0  0  0  0  0  0
  585.6893  -30.9336  205.1402 C   0  0  2  0  0  0  0  0  0  0  0  0
  586.8120  -31.7293  205.2807 O   0  0  0  0  0  0  0  0  0  0  0  0
  1  2  1  0
  3  2  1  6
  3  4  1  0
  4  5  1  0
  5  6  1  0
  5  7  1  0
  7  8  1  6
  7  9  1  0
  9 10  1  1
  9 11  1  0
 11 12  1  1
 11  3  1  0
M  END
$$$$
