
     RDKit          3D

 12 12  0  0  0  0  0  0  0  0999 V2000
  584.6108  -31.6465  201.9109 O   0  0  0  0  0  0  0  0  0  0  0  0
  585.5132  -30.6254  202.0841 C   0  0  0  0  0  0  0  0  0  0  0  0
  585.3812  -30.0287  203.4634 C   0  0  1  0  0  0  0  0  0  0  0  0
  584.1104  -29.5595  203.7073 O   0  0  0  0  0  0  0  0  0  0  0  0
  584.1070  -28.7214  204.7877 C   0  0  0  0  0  0  0  0  0  0  0  0
  584.6398  -27.4747  204.4044 O   0  0  0  0  0  0  0  0  0  0  0  0
  584.7599  -29.2251  206.0123 C   0  0  2  0  0  0  0  0  0  0  0  0
  585.3723  -28.1261  206.6585 O   0  0  0  0  0  0  0  0  0  0  0  0
  585.7864  -30.2736  205.8388 C   0  0  1  0  0  0  0  0  0  0  0  0
  585.7856  -31.2049  206.8795 O   0  0  0  0  0  0  0  0  0  0  0  0
  585.6829  -31.0454  204.5466 C   0  0  2  0  0  0  0  0  0  0  0  0
  586.8434  -31.7559  204.2981 O   0  0  0  0  0  0  0  0  0  0  0  0
  1  2  1  0
  3  2  1  6
  3  4  1  0
  4  5  1  0
  5  6  1  0
  5  7  1  0
  7  8  1  6
  7  9  1  0
  9 10  1  1
  9 11  1  0
 11 12  1  6
 11  3  1  0
M  END
$$$$
