
     RDKit          3D

 12 12  0  0  0  0  0  0  0  0999 V2000
  576.9597  -37.2068  176.1761 O   0  0  0  0  0  0  0  0  0  0  0  0
  577.4720  -38.0786  177.1058 C   0  0  0  0  0  0  0  0  0  0  0  0
  577.6816  -39.4424  176.4957 C   0  0  1  0  0  0  0  0  0  0  0  0
  576.5564  -39.9011  175.8491 O   0  0  0  0  0  0  0  0  0  0  0  0
  576.6461  -41.2472  175.6257 C   0  0  0  0  0  0  0  0  0  0  0  0
  576.3970  -41.9313  176.8318 O   0  0  0  0  0  0  0  0  0  0  0  0
  577.8891  -41.7263  174.9892 C   0  0  2  0  0  0  0  0  0  0  0  0
  578.1894  -42.9977  175.5312 O   0  0  0  0  0  0  0  0  0  0  0  0
  579.0884  -40.8772  175.1434 C   0  0  1  0  0  0  0  0  0  0  0  0
  579.9061  -40.8903  174.0114 O   0  0  0  0  0  0  0  0  0  0  0  0
  578.7974  -39.4333  175.4695 C   0  0  2  0  0  0  0  0  0  0  0  0
  579.9327  -38.7888  175.9269 O   0  0  0  0  0  0  0  0  0  0  0  0
  1  2  1  0
  3  2  1  6
  3  4  1  0
  4  5  1  0
  5  6  1  0
  5  7  1  0
  7  8  1  1
  7  9  1  0
  9 10  1  6
  9 11  1  0
 11 12  1  1
 11  3  1  0
M  END
$$$$
