
     RDKit          3D

 12 12  0  0  0  0  0  0  0  0999 V2000
  569.3069  -33.1034  203.0105 O   0  0  0  0  0  0  0  0  0  0  0  0
  569.0176  -32.6469  201.7477 C   0  0  0  0  0  0  0  0  0  0  0  0
  570.2861  -32.3926  200.9716 C   0  0  1  0  0  0  0  0  0  0  0  0
  571.2025  -31.6657  201.6972 O   0  0  0  0  0  0  0  0  0  0  0  0
  572.1653  -31.1494  200.8749 C   0  0  0  0  0  0  0  0  0  0  0  0
  571.6340  -30.0436  200.1821 O   0  0  0  0  0  0  0  0  0  0  0  0
  572.8141  -32.0968  199.9470 C   0  0  2  0  0  0  0  0  0  0  0  0
  573.0973  -31.4017  198.7482 O   0  0  0  0  0  0  0  0  0  0  0  0
  572.0523  -33.3122  199.5927 C   0  0  1  0  0  0  0  0  0  0  0  0
  572.8707  -34.4319  199.4298 O   0  0  0  0  0  0  0  0  0  0  0  0
  570.9727  -33.6856  200.5781 C   0  0  2  0  0  0  0  0  0  0  0  0
  570.0967  -34.6053  200.0303 O   0  0  0  0  0  0  0  0  0  0  0  0
  1  2  1  0
  3  2  1  1
  3  4  1  0
  4  5  1  0
  5  6  1  0
  5  7  1  0
  7  8  1  6
  7  9  1  0
  9 10  1  1
  9 11  1  0
 11 12  1  6
 11  3  1  0
M  END
$$$$
