
     RDKit          3D

 12 12  0  0  0  0  0  0  0  0999 V2000
  584.9011  -31.2239  200.8468 O   0  0  0  0  0  0  0  0  0  0  0  0
  586.2603  -31.2011  201.0443 C   0  0  0  0  0  0  0  0  0  0  0  0
  586.6714  -32.2674  202.0292 C   0  0  1  0  0  0  0  0  0  0  0  0
  585.8026  -32.3551  203.0932 O   0  0  0  0  0  0  0  0  0  0  0  0
  586.3728  -33.0514  204.1227 C   0  0  0  0  0  0  0  0  0  0  0  0
  587.3052  -32.2228  204.7777 O   0  0  0  0  0  0  0  0  0  0  0  0
  586.9697  -34.3578  203.7812 C   0  0  2  0  0  0  0  0  0  0  0  0
  588.1099  -34.5385  204.5986 O   0  0  0  0  0  0  0  0  0  0  0  0
  587.3871  -34.5550  202.3776 C   0  0  1  0  0  0  0  0  0  0  0  0
  587.1880  -35.8648  201.9360 O   0  0  0  0  0  0  0  0  0  0  0  0
  586.7100  -33.6402  201.3873 C   0  0  2  0  0  0  0  0  0  0  0  0
  587.3766  -33.6398  200.1752 O   0  0  0  0  0  0  0  0  0  0  0  0
  1  2  1  0
  3  2  1  6
  3  4  1  0
  4  5  1  0
  5  6  1  0
  5  7  1  0
  7  8  1  1
  7  9  1  0
  9 10  1  6
  9 11  1  0
 11 12  1  6
 11  3  1  0
M  END
$$$$
