
     RDKit          3D

 12 12  0  0  0  0  0  0  0  0999 V2000
  584.8578  -31.7710  202.1466 O   0  0  0  0  0  0  0  0  0  0  0  0
  585.8619  -30.8598  202.3667 C   0  0  0  0  0  0  0  0  0  0  0  0
  585.5690  -30.0333  203.5943 C   0  0  1  0  0  0  0  0  0  0  0  0
  584.3177  -29.4615  203.5496 O   0  0  0  0  0  0  0  0  0  0  0  0
  584.2167  -28.4547  204.4693 C   0  0  0  0  0  0  0  0  0  0  0  0
  584.9005  -27.3210  203.9873 O   0  0  0  0  0  0  0  0  0  0  0  0
  584.6320  -28.7800  205.8482 C   0  0  2  0  0  0  0  0  0  0  0  0
  585.2249  -27.6229  206.4050 O   0  0  0  0  0  0  0  0  0  0  0  0
  585.5852  -29.8970  206.0125 C   0  0  1  0  0  0  0  0  0  0  0  0
  585.3504  -30.6385  207.1724 O   0  0  0  0  0  0  0  0  0  0  0  0
  585.6187  -30.8683  204.8587 C   0  0  2  0  0  0  0  0  0  0  0  0
  586.7426  -31.6724  204.9187 O   0  0  0  0  0  0  0  0  0  0  0  0
  1  2  1  0
  3  2  1  6
  3  4  1  0
  4  5  1  0
  5  6  1  0
  5  7  1  0
  7  8  1  6
  7  9  1  0
  9 10  1  1
  9 11  1  0
 11 12  1  6
 11  3  1  0
M  END
$$$$
