
     RDKit          3D

 12 12  0  0  0  0  0  0  0  0999 V2000
  586.3076  -25.0422  202.1000 O   0  0  0  0  0  0  0  0  0  0  0  0
  585.0972  -25.6680  202.2738 C   0  0  0  0  0  0  0  0  0  0  0  0
  585.1357  -26.5723  203.4808 C   0  0  1  0  0  0  0  0  0  0  0  0
  586.3049  -27.2952  203.5515 O   0  0  0  0  0  0  0  0  0  0  0  0
  586.1704  -28.3420  204.4210 C   0  0  0  0  0  0  0  0  0  0  0  0
  585.4193  -29.3606  203.8019 O   0  0  0  0  0  0  0  0  0  0  0  0
  585.6317  -28.0211  205.7575 C   0  0  2  0  0  0  0  0  0  0  0  0
  584.8398  -29.1151  206.1780 O   0  0  0  0  0  0  0  0  0  0  0  0
  584.8071  -26.8001  205.8697 C   0  0  1  0  0  0  0  0  0  0  0  0
  584.9857  -26.1402  207.0873 O   0  0  0  0  0  0  0  0  0  0  0  0
  585.0326  -25.7880  204.7739 C   0  0  2  0  0  0  0  0  0  0  0  0
  584.0150  -24.8514  204.7458 O   0  0  0  0  0  0  0  0  0  0  0  0
  1  2  1  0
  3  2  1  6
  3  4  1  0
  4  5  1  0
  5  6  1  0
  5  7  1  0
  7  8  1  6
  7  9  1  0
  9 10  1  1
  9 11  1  0
 11 12  1  6
 11  3  1  0
M  END
$$$$
