
     RDKit          3D

 12 12  0  0  0  0  0  0  0  0999 V2000
  585.8270  -32.1858  202.8983 O   0  0  0  0  0  0  0  0  0  0  0  0
  584.6491  -31.4852  202.9900 C   0  0  0  0  0  0  0  0  0  0  0  0
  584.8195  -30.2735  203.8725 C   0  0  1  0  0  0  0  0  0  0  0  0
  585.6053  -30.5372  204.9714 O   0  0  0  0  0  0  0  0  0  0  0  0
  585.4521  -29.5611  205.9167 C   0  0  0  0  0  0  0  0  0  0  0  0
  584.2240  -29.7520  206.5802 O   0  0  0  0  0  0  0  0  0  0  0  0
  585.5943  -28.1673  205.4512 C   0  0  2  0  0  0  0  0  0  0  0  0
  584.6913  -27.3701  206.1926 O   0  0  0  0  0  0  0  0  0  0  0  0
  585.3450  -27.9135  204.0171 C   0  0  1  0  0  0  0  0  0  0  0  0
  586.1783  -26.9230  203.4931 O   0  0  0  0  0  0  0  0  0  0  0  0
  585.4807  -29.1278  203.1321 C   0  0  2  0  0  0  0  0  0  0  0  0
  584.9148  -28.9029  201.8901 O   0  0  0  0  0  0  0  0  0  0  0  0
  1  2  1  0
  3  2  1  6
  3  4  1  0
  4  5  1  0
  5  6  1  0
  5  7  1  0
  7  8  1  1
  7  9  1  0
  9 10  1  6
  9 11  1  0
 11 12  1  6
 11  3  1  0
M  END
$$$$
