
     RDKit          3D

 12 12  0  0  0  0  0  0  0  0999 V2000
  577.4037  -40.5427  175.1202 O   0  0  0  0  0  0  0  0  0  0  0  0
  577.9840  -41.0150  176.2721 C   0  0  0  0  0  0  0  0  0  0  0  0
  577.8306  -42.5127  176.3682 C   0  0  1  0  0  0  0  0  0  0  0  0
  576.5280  -42.9151  176.1786 O   0  0  0  0  0  0  0  0  0  0  0  0
  576.3530  -44.1982  176.6176 C   0  0  0  0  0  0  0  0  0  0  0  0
  576.2907  -44.1983  178.0251 O   0  0  0  0  0  0  0  0  0  0  0  0
  577.3223  -45.1983  176.1279 C   0  0  2  0  0  0  0  0  0  0  0  0
  577.5405  -46.1330  177.1668 O   0  0  0  0  0  0  0  0  0  0  0  0
  578.6411  -44.6932  175.6935 C   0  0  1  0  0  0  0  0  0  0  0  0
  579.1583  -45.4032  174.6078 O   0  0  0  0  0  0  0  0  0  0  0  0
  578.6621  -43.2308  175.3236 C   0  0  2  0  0  0  0  0  0  0  0  0
  579.9588  -42.7534  175.2588 O   0  0  0  0  0  0  0  0  0  0  0  0
  1  2  1  0
  3  2  1  6
  3  4  1  0
  4  5  1  0
  5  6  1  0
  5  7  1  0
  7  8  1  1
  7  9  1  0
  9 10  1  6
  9 11  1  0
 11 12  1  1
 11  3  1  0
M  END
$$$$
