
     RDKit          3D

 12 12  0  0  0  0  0  0  0  0999 V2000
  584.8118  -24.0909  201.3402 O   0  0  0  0  0  0  0  0  0  0  0  0
  586.0620  -24.4786  201.7568 C   0  0  0  0  0  0  0  0  0  0  0  0
  585.9619  -25.4168  202.9339 C   0  0  1  0  0  0  0  0  0  0  0  0
  584.9776  -25.0380  203.8184 O   0  0  0  0  0  0  0  0  0  0  0  0
  585.1420  -25.6703  205.0196 C   0  0  0  0  0  0  0  0  0  0  0  0
  586.1980  -25.0564  205.7218 O   0  0  0  0  0  0  0  0  0  0  0  0
  585.3154  -27.1357  204.9726 C   0  0  2  0  0  0  0  0  0  0  0  0
  586.2111  -27.4980  206.0057 O   0  0  0  0  0  0  0  0  0  0  0  0
  585.8298  -27.7072  203.7109 C   0  0  1  0  0  0  0  0  0  0  0  0
  585.2717  -28.9533  203.4176 O   0  0  0  0  0  0  0  0  0  0  0  0
  585.6321  -26.8311  202.4987 C   0  0  2  0  0  0  0  0  0  0  0  0
  586.4188  -27.2577  201.4439 O   0  0  0  0  0  0  0  0  0  0  0  0
  1  2  1  0
  3  2  1  6
  3  4  1  0
  4  5  1  0
  5  6  1  0
  5  7  1  0
  7  8  1  1
  7  9  1  0
  9 10  1  6
  9 11  1  0
 11 12  1  6
 11  3  1  0
M  END
$$$$
