
     RDKit          3D

 12 12  0  0  0  0  0  0  0  0999 V2000
  584.5129  -31.6615  201.3534 O   0  0  0  0  0  0  0  0  0  0  0  0
  585.2091  -30.4863  201.4984 C   0  0  0  0  0  0  0  0  0  0  0  0
  585.1722  -30.0211  202.9330 C   0  0  1  0  0  0  0  0  0  0  0  0
  583.9031  -29.6687  203.3328 O   0  0  0  0  0  0  0  0  0  0  0  0
  583.9496  -28.9287  204.4817 C   0  0  0  0  0  0  0  0  0  0  0  0
  584.3611  -27.6181  204.1683 O   0  0  0  0  0  0  0  0  0  0  0  0
  584.7487  -29.4863  205.5907 C   0  0  2  0  0  0  0  0  0  0  0  0
  585.3481  -28.4049  206.2775 O   0  0  0  0  0  0  0  0  0  0  0  0
  585.8194  -30.4383  205.2295 C   0  0  1  0  0  0  0  0  0  0  0  0
  585.9793  -31.4527  206.1758 O   0  0  0  0  0  0  0  0  0  0  0  0
  585.6421  -31.1020  203.8864 C   0  0  2  0  0  0  0  0  0  0  0  0
  586.8169  -31.7018  203.4698 O   0  0  0  0  0  0  0  0  0  0  0  0
  1  2  1  0
  3  2  1  6
  3  4  1  0
  4  5  1  0
  5  6  1  0
  5  7  1  0
  7  8  1  6
  7  9  1  0
  9 10  1  1
  9 11  1  0
 11 12  1  6
 11  3  1  0
M  END
$$$$
