
     RDKit          3D

 12 12  0  0  0  0  0  0  0  0999 V2000
  584.7560  -31.9447  202.2911 O   0  0  0  0  0  0  0  0  0  0  0  0
  585.6762  -30.9359  202.4411 C   0  0  0  0  0  0  0  0  0  0  0  0
  585.4483  -30.1979  203.7370 C   0  0  1  0  0  0  0  0  0  0  0  0
  584.1653  -29.7098  203.8385 O   0  0  0  0  0  0  0  0  0  0  0  0
  584.0882  -28.7627  204.8218 C   0  0  0  0  0  0  0  0  0  0  0  0
  584.6526  -27.5616  204.3488 O   0  0  0  0  0  0  0  0  0  0  0  0
  584.6495  -29.1329  206.1362 C   0  0  2  0  0  0  0  0  0  0  0  0
  585.2188  -27.9701  206.7056 O   0  0  0  0  0  0  0  0  0  0  0  0
  585.6812  -30.1905  206.1478 C   0  0  1  0  0  0  0  0  0  0  0  0
  585.6018  -31.0072  207.2779 O   0  0  0  0  0  0  0  0  0  0  0  0
  585.6671  -31.0942  204.9399 C   0  0  2  0  0  0  0  0  0  0  0  0
  586.8394  -31.8231  204.8512 O   0  0  0  0  0  0  0  0  0  0  0  0
  1  2  1  0
  3  2  1  6
  3  4  1  0
  4  5  1  0
  5  6  1  0
  5  7  1  0
  7  8  1  6
  7  9  1  0
  9 10  1  1
  9 11  1  0
 11 12  1  6
 11  3  1  0
M  END
$$$$
