1arm_peg24_glc.pdb
  Mrv15b2301182605322D          

142142  0  0  0  0            999 V2000
  -46.9256    0.5492    0.0000 N   0  0  0  0  0  0  0  0  0  0  0  0
  -46.5131   -0.1652    0.0000 C   0  0  0  0  0  0  0  0  0  0  0  0
  -47.2276   -0.5777    0.0000 C   0  0  0  0  0  0  0  0  0  0  0  0
  -47.9421   -0.1652    0.0000 O   0  0  0  0  0  0  0  0  0  0  0  0
  -46.1006   -0.8797    0.0000 C   0  0  0  0  0  0  0  0  0  0  0  0
  -46.5131   -1.5942    0.0000 O   0  0  0  0  0  0  0  0  0  0  0  0
  -45.7986    0.2473    0.0000 C   0  0  0  0  0  0  0  0  0  0  0  0
  -45.0842   -0.1652    0.0000 O   0  0  0  0  0  0  0  0  0  0  0  0
  -44.3697    0.2473    0.0000 C   0  0  0  0  0  0  0  0  0  0  0  0
  -43.6552   -0.1652    0.0000 C   0  0  0  0  0  0  0  0  0  0  0  0
  -42.9408    0.2473    0.0000 O   0  0  0  0  0  0  0  0  0  0  0  0
  -42.2263   -0.1652    0.0000 C   0  0  0  0  0  0  0  0  0  0  0  0
  -41.5118    0.2473    0.0000 O   0  0  0  0  0  0  0  0  0  0  0  0
  -40.7974   -0.1652    0.0000 C   0  0  0  0  0  0  0  0  0  0  0  0
  -40.0829    0.2473    0.0000 C   0  0  0  0  0  0  0  0  0  0  0  0
  -39.3684   -0.1652    0.0000 O   0  0  0  0  0  0  0  0  0  0  0  0
  -38.6539    0.2473    0.0000 C   0  0  0  0  0  0  0  0  0  0  0  0
  -37.9395   -0.1652    0.0000 O   0  0  0  0  0  0  0  0  0  0  0  0
  -37.2250    0.2473    0.0000 C   0  0  0  0  0  0  0  0  0  0  0  0
  -36.5105   -0.1652    0.0000 C   0  0  0  0  0  0  0  0  0  0  0  0
  -35.7961    0.2473    0.0000 O   0  0  0  0  0  0  0  0  0  0  0  0
  -35.0816   -0.1652    0.0000 C   0  0  0  0  0  0  0  0  0  0  0  0
  -34.3671    0.2473    0.0000 O   0  0  0  0  0  0  0  0  0  0  0  0
  -33.6526   -0.1652    0.0000 C   0  0  0  0  0  0  0  0  0  0  0  0
  -32.9382    0.2473    0.0000 C   0  0  0  0  0  0  0  0  0  0  0  0
  -32.2237   -0.1652    0.0000 O   0  0  0  0  0  0  0  0  0  0  0  0
  -31.5092    0.2473    0.0000 C   0  0  0  0  0  0  0  0  0  0  0  0
  -30.7948   -0.1652    0.0000 O   0  0  0  0  0  0  0  0  0  0  0  0
  -30.0803    0.2473    0.0000 C   0  0  0  0  0  0  0  0  0  0  0  0
  -29.3658   -0.1652    0.0000 C   0  0  0  0  0  0  0  0  0  0  0  0
  -28.6513    0.2473    0.0000 O   0  0  0  0  0  0  0  0  0  0  0  0
  -27.9369   -0.1652    0.0000 C   0  0  0  0  0  0  0  0  0  0  0  0
  -27.2224    0.2473    0.0000 O   0  0  0  0  0  0  0  0  0  0  0  0
  -26.5079   -0.1652    0.0000 C   0  0  0  0  0  0  0  0  0  0  0  0
  -25.7935    0.2473    0.0000 C   0  0  0  0  0  0  0  0  0  0  0  0
  -25.0790   -0.1652    0.0000 O   0  0  0  0  0  0  0  0  0  0  0  0
  -24.3645    0.2473    0.0000 C   0  0  0  0  0  0  0  0  0  0  0  0
  -23.6500   -0.1652    0.0000 O   0  0  0  0  0  0  0  0  0  0  0  0
  -22.9356    0.2473    0.0000 C   0  0  0  0  0  0  0  0  0  0  0  0
  -22.2211   -0.1652    0.0000 C   0  0  0  0  0  0  0  0  0  0  0  0
  -21.5066    0.2473    0.0000 O   0  0  0  0  0  0  0  0  0  0  0  0
  -20.7922   -0.1652    0.0000 C   0  0  0  0  0  0  0  0  0  0  0  0
  -20.0777    0.2473    0.0000 O   0  0  0  0  0  0  0  0  0  0  0  0
  -19.3632   -0.1652    0.0000 C   0  0  0  0  0  0  0  0  0  0  0  0
  -18.6488    0.2473    0.0000 C   0  0  0  0  0  0  0  0  0  0  0  0
  -17.9343   -0.1652    0.0000 O   0  0  0  0  0  0  0  0  0  0  0  0
  -17.2198    0.2473    0.0000 C   0  0  0  0  0  0  0  0  0  0  0  0
  -16.5053   -0.1652    0.0000 O   0  0  0  0  0  0  0  0  0  0  0  0
  -15.7909    0.2473    0.0000 C   0  0  0  0  0  0  0  0  0  0  0  0
  -15.0764   -0.1652    0.0000 C   0  0  0  0  0  0  0  0  0  0  0  0
  -14.3619    0.2473    0.0000 O   0  0  0  0  0  0  0  0  0  0  0  0
  -13.6475   -0.1652    0.0000 C   0  0  0  0  0  0  0  0  0  0  0  0
  -12.9330    0.2473    0.0000 O   0  0  0  0  0  0  0  0  0  0  0  0
  -12.2185   -0.1652    0.0000 C   0  0  0  0  0  0  0  0  0  0  0  0
  -11.5040    0.2473    0.0000 C   0  0  0  0  0  0  0  0  0  0  0  0
  -10.7896   -0.1652    0.0000 O   0  0  0  0  0  0  0  0  0  0  0  0
  -10.0751    0.2473    0.0000 C   0  0  0  0  0  0  0  0  0  0  0  0
   -9.3606   -0.1652    0.0000 O   0  0  0  0  0  0  0  0  0  0  0  0
   -8.6462    0.2473    0.0000 C   0  0  0  0  0  0  0  0  0  0  0  0
   -7.9317   -0.1652    0.0000 C   0  0  0  0  0  0  0  0  0  0  0  0
   -7.2172    0.2473    0.0000 O   0  0  0  0  0  0  0  0  0  0  0  0
   -6.5027   -0.1652    0.0000 C   0  0  0  0  0  0  0  0  0  0  0  0
   -5.7883    0.2473    0.0000 O   0  0  0  0  0  0  0  0  0  0  0  0
   -5.0738   -0.1652    0.0000 C   0  0  0  0  0  0  0  0  0  0  0  0
   -4.3593    0.2473    0.0000 C   0  0  0  0  0  0  0  0  0  0  0  0
   -3.6449   -0.1652    0.0000 O   0  0  0  0  0  0  0  0  0  0  0  0
   -2.9304    0.2473    0.0000 C   0  0  0  0  0  0  0  0  0  0  0  0
   -2.2159   -0.1652    0.0000 O   0  0  0  0  0  0  0  0  0  0  0  0
   -1.5014    0.2473    0.0000 C   0  0  0  0  0  0  0  0  0  0  0  0
   -0.7870   -0.1652    0.0000 C   0  0  0  0  0  0  0  0  0  0  0  0
   -0.0725    0.2473    0.0000 O   0  0  0  0  0  0  0  0  0  0  0  0
    0.6420   -0.1652    0.0000 C   0  0  0  0  0  0  0  0  0  0  0  0
    1.3564    0.2473    0.0000 O   0  0  0  0  0  0  0  0  0  0  0  0
    2.0709   -0.1652    0.0000 C   0  0  0  0  0  0  0  0  0  0  0  0
    2.7854    0.2473    0.0000 C   0  0  0  0  0  0  0  0  0  0  0  0
    3.4998   -0.1652    0.0000 O   0  0  0  0  0  0  0  0  0  0  0  0
    4.2143    0.2473    0.0000 C   0  0  0  0  0  0  0  0  0  0  0  0
    4.9288   -0.1652    0.0000 O   0  0  0  0  0  0  0  0  0  0  0  0
    5.6433    0.2473    0.0000 C   0  0  0  0  0  0  0  0  0  0  0  0
    6.3577   -0.1652    0.0000 C   0  0  0  0  0  0  0  0  0  0  0  0
    7.0722    0.2473    0.0000 O   0  0  0  0  0  0  0  0  0  0  0  0
    7.7867   -0.1652    0.0000 C   0  0  0  0  0  0  0  0  0  0  0  0
    8.5011    0.2473    0.0000 O   0  0  0  0  0  0  0  0  0  0  0  0
    9.2156   -0.1652    0.0000 C   0  0  0  0  0  0  0  0  0  0  0  0
    9.9301    0.2473    0.0000 C   0  0  0  0  0  0  0  0  0  0  0  0
   10.6446   -0.1652    0.0000 O   0  0  0  0  0  0  0  0  0  0  0  0
   11.3590    0.2473    0.0000 C   0  0  0  0  0  0  0  0  0  0  0  0
   12.0735   -0.1652    0.0000 O   0  0  0  0  0  0  0  0  0  0  0  0
   12.7880    0.2473    0.0000 C   0  0  0  0  0  0  0  0  0  0  0  0
   13.5024   -0.1652    0.0000 C   0  0  0  0  0  0  0  0  0  0  0  0
   14.2169    0.2473    0.0000 O   0  0  0  0  0  0  0  0  0  0  0  0
   14.9314   -0.1652    0.0000 C   0  0  0  0  0  0  0  0  0  0  0  0
   15.6459    0.2473    0.0000 O   0  0  0  0  0  0  0  0  0  0  0  0
   16.3603   -0.1652    0.0000 C   0  0  0  0  0  0  0  0  0  0  0  0
   17.0748    0.2473    0.0000 C   0  0  0  0  0  0  0  0  0  0  0  0
   17.7893   -0.1652    0.0000 O   0  0  0  0  0  0  0  0  0  0  0  0
   18.5037    0.2473    0.0000 C   0  0  0  0  0  0  0  0  0  0  0  0
   19.2182   -0.1652    0.0000 O   0  0  0  0  0  0  0  0  0  0  0  0
   19.9327    0.2473    0.0000 C   0  0  0  0  0  0  0  0  0  0  0  0
   20.6472   -0.1652    0.0000 C   0  0  0  0  0  0  0  0  0  0  0  0
   21.3616    0.2473    0.0000 O   0  0  0  0  0  0  0  0  0  0  0  0
   22.0761   -0.1652    0.0000 C   0  0  0  0  0  0  0  0  0  0  0  0
   22.7906    0.2473    0.0000 O   0  0  0  0  0  0  0  0  0  0  0  0
   23.5050   -0.1652    0.0000 C   0  0  0  0  0  0  0  0  0  0  0  0
   24.2195    0.2473    0.0000 C   0  0  0  0  0  0  0  0  0  0  0  0
   24.9340   -0.1652    0.0000 O   0  0  0  0  0  0  0  0  0  0  0  0
   25.6484    0.2473    0.0000 C   0  0  0  0  0  0  0  0  0  0  0  0
   26.3629   -0.1652    0.0000 O   0  0  0  0  0  0  0  0  0  0  0  0
   27.0774    0.2473    0.0000 C   0  0  0  0  0  0  0  0  0  0  0  0
   27.7919   -0.1652    0.0000 C   0  0  0  0  0  0  0  0  0  0  0  0
   28.5063    0.2473    0.0000 O   0  0  0  0  0  0  0  0  0  0  0  0
   29.2208   -0.1652    0.0000 C   0  0  0  0  0  0  0  0  0  0  0  0
   29.9353    0.2473    0.0000 O   0  0  0  0  0  0  0  0  0  0  0  0
   30.6497   -0.1652    0.0000 C   0  0  0  0  0  0  0  0  0  0  0  0
   31.3642    0.2473    0.0000 C   0  0  0  0  0  0  0  0  0  0  0  0
   32.0787   -0.1652    0.0000 O   0  0  0  0  0  0  0  0  0  0  0  0
   32.7932    0.2473    0.0000 C   0  0  0  0  0  0  0  0  0  0  0  0
   33.5076   -0.1652    0.0000 O   0  0  0  0  0  0  0  0  0  0  0  0
   34.2221    0.2473    0.0000 C   0  0  0  0  0  0  0  0  0  0  0  0
   34.9366   -0.1652    0.0000 C   0  0  0  0  0  0  0  0  0  0  0  0
   35.6510    0.2473    0.0000 O   0  0  0  0  0  0  0  0  0  0  0  0
   36.3655   -0.1652    0.0000 C   0  0  0  0  0  0  0  0  0  0  0  0
   37.0800    0.2473    0.0000 O   0  0  0  0  0  0  0  0  0  0  0  0
   37.7945   -0.1652    0.0000 C   0  0  0  0  0  0  0  0  0  0  0  0
   38.5089    0.2473    0.0000 C   0  0  0  0  0  0  0  0  0  0  0  0
   39.2234   -0.1652    0.0000 O   0  0  0  0  0  0  0  0  0  0  0  0
   39.9379    0.2473    0.0000 C   0  0  0  0  0  0  0  0  0  0  0  0
   40.6523   -0.1652    0.0000 O   0  0  0  0  0  0  0  0  0  0  0  0
   41.3668    0.2473    0.0000 O   0  0  0  0  0  0  0  0  0  0  0  0
   42.0813   -0.1652    0.0000 C   0  0  2  0  0  0  0  0  0  0  0  0
   42.7629    0.2995    0.0000 O   0  0  0  0  0  0  0  0  0  0  0  0
   43.5513    0.0563    0.0000 C   0  0  2  0  0  0  0  0  0  0  0  0
   44.1124    0.6611    0.0000 C   0  0  0  0  0  0  0  0  0  0  0  0
   43.8692    1.4494    0.0000 O   0  0  0  0  0  0  0  0  0  0  0  0
   43.8527   -0.7117    0.0000 C   0  0  1  0  0  0  0  0  0  0  0  0
   44.6754   -0.7733    0.0000 O   0  0  0  0  0  0  0  0  0  0  0  0
   43.4402   -1.4261    0.0000 C   0  0  2  0  0  0  0  0  0  0  0  0
   43.9049   -2.1078    0.0000 O   0  0  0  0  0  0  0  0  0  0  0  0
   42.6244   -1.5491    0.0000 C   0  0  2  0  0  0  0  0  0  0  0  0
   42.3812   -2.3374    0.0000 O   0  0  0  0  0  0  0  0  0  0  0  0
   42.0196   -0.9879    0.0000 C   0  0  1  0  0  0  0  0  0  0  0  0
   41.2517   -1.2893    0.0000 O   0  0  0  0  0  0  0  0  0  0  0  0
  1  2  1  0  0  0  0
  2  3  1  0  0  0  0
  2  5  1  0  0  0  0
  2  7  1  0  0  0  0
  3  4  1  0  0  0  0
  5  6  1  0  0  0  0
  7  8  1  0  0  0  0
  8  9  1  0  0  0  0
  9 10  1  0  0  0  0
 10 11  1  0  0  0  0
 11 12  1  0  0  0  0
 12 13  1  0  0  0  0
 13 14  1  0  0  0  0
 14 15  1  0  0  0  0
 15 16  1  0  0  0  0
 16 17  1  0  0  0  0
 17 18  1  0  0  0  0
 18 19  1  0  0  0  0
 19 20  1  0  0  0  0
 20 21  1  0  0  0  0
 21 22  1  0  0  0  0
 22 23  1  0  0  0  0
 23 24  1  0  0  0  0
 24 25  1  0  0  0  0
 25 26  1  0  0  0  0
 26 27  1  0  0  0  0
 27 28  1  0  0  0  0
 28 29  1  0  0  0  0
 29 30  1  0  0  0  0
 30 31  1  0  0  0  0
 31 32  1  0  0  0  0
 32 33  1  0  0  0  0
 33 34  1  0  0  0  0
 34 35  1  0  0  0  0
 35 36  1  0  0  0  0
 36 37  1  0  0  0  0
 37 38  1  0  0  0  0
 38 39  1  0  0  0  0
 39 40  1  0  0  0  0
 40 41  1  0  0  0  0
 41 42  1  0  0  0  0
 42 43  1  0  0  0  0
 43 44  1  0  0  0  0
 44 45  1  0  0  0  0
 45 46  1  0  0  0  0
 46 47  1  0  0  0  0
 47 48  1  0  0  0  0
 48 49  1  0  0  0  0
 49 50  1  0  0  0  0
 50 51  1  0  0  0  0
 51 52  1  0  0  0  0
 52 53  1  0  0  0  0
 53 54  1  0  0  0  0
 54 55  1  0  0  0  0
 55 56  1  0  0  0  0
 56 57  1  0  0  0  0
 57 58  1  0  0  0  0
 58 59  1  0  0  0  0
 59 60  1  0  0  0  0
 60 61  1  0  0  0  0
 61 62  1  0  0  0  0
 62 63  1  0  0  0  0
 63 64  1  0  0  0  0
 64 65  1  0  0  0  0
 65 66  1  0  0  0  0
 66 67  1  0  0  0  0
 67 68  1  0  0  0  0
 68 69  1  0  0  0  0
 69 70  1  0  0  0  0
 70 71  1  0  0  0  0
 71 72  1  0  0  0  0
 72 73  1  0  0  0  0
 73 74  1  0  0  0  0
 74 75  1  0  0  0  0
 75 76  1  0  0  0  0
 76 77  1  0  0  0  0
 77 78  1  0  0  0  0
 78 79  1  0  0  0  0
 79 80  1  0  0  0  0
 80 81  1  0  0  0  0
 81 82  1  0  0  0  0
 82 83  1  0  0  0  0
 83 84  1  0  0  0  0
 84 85  1  0  0  0  0
 85 86  1  0  0  0  0
 86 87  1  0  0  0  0
 87 88  1  0  0  0  0
 88 89  1  0  0  0  0
 89 90  1  0  0  0  0
 90 91  1  0  0  0  0
 91 92  1  0  0  0  0
 92 93  1  0  0  0  0
 93 94  1  0  0  0  0
 94 95  1  0  0  0  0
 95 96  1  0  0  0  0
 96 97  1  0  0  0  0
 97 98  1  0  0  0  0
 98 99  1  0  0  0  0
 99100  1  0  0  0  0
100101  1  0  0  0  0
101102  1  0  0  0  0
102103  1  0  0  0  0
103104  1  0  0  0  0
104105  1  0  0  0  0
105106  1  0  0  0  0
106107  1  0  0  0  0
107108  1  0  0  0  0
108109  1  0  0  0  0
109110  1  0  0  0  0
110111  1  0  0  0  0
111112  1  0  0  0  0
112113  1  0  0  0  0
113114  1  0  0  0  0
114115  1  0  0  0  0
115116  1  0  0  0  0
116117  1  0  0  0  0
117118  1  0  0  0  0
118119  1  0  0  0  0
119120  1  0  0  0  0
120121  1  0  0  0  0
121122  1  0  0  0  0
122123  1  0  0  0  0
123124  1  0  0  0  0
124125  1  0  0  0  0
125126  1  0  0  0  0
126127  1  0  0  0  0
127128  1  0  0  0  0
128129  1  0  0  0  0
130129  1  6  0  0  0
130131  1  0  0  0  0
130141  1  0  0  0  0
131132  1  0  0  0  0
132133  1  6  0  0  0
132135  1  0  0  0  0
133134  1  0  0  0  0
135136  1  1  0  0  0
135137  1  0  0  0  0
137138  1  6  0  0  0
137139  1  0  0  0  0
139140  1  6  0  0  0
139141  1  0  0  0  0
141142  1  1  0  0  0
M  END
