@<TRIPOS>MOLECULE
1arm_peg24_glc.pdb
 309 309 0 0 0
SMALL
GASTEIGER

@<TRIPOS>ATOM
      1 N1          2.6692   -1.5993   -1.3418 N.3     1  UNL11      -0.3192
      2 C1          1.6368   -1.9022   -2.3659 C.3     1  UNL11       0.0867
      3 C2          0.3649   -1.0810   -2.0706 C.3     1  UNL11       0.0665
      4 O1         -0.1203   -1.3136   -0.7468 O.3     1  UNL11      -0.3930
      5 C3          2.2382   -1.4805   -3.7137 C.3     1  UNL11       0.0665
      6 O2          2.4189   -0.0582   -3.7657 O.3     1  UNL11      -0.3930
      7 C4          1.2905   -3.4087   -2.3742 C.3     1  UNL11       0.0701
      8 O3          0.2851   -3.7472   -3.3349 O.3     1  UNL11      -0.3755
      9 C5         -0.8570   -4.3135   -2.6877 C.3     1  UNL11       0.0712
     10 C6         -1.9964   -4.5511   -3.6488 C.3     1  UNL11       0.0737
     11 O4         -3.1296   -5.0659   -2.9742 O.3     1  UNL11      -0.3518
     12 C7         -4.3413   -4.5432   -3.5069 C.3     1  UNL11       0.1483
     13 O5         -4.7417   -3.3900   -2.7972 O.3     1  UNL11      -0.3518
     14 C8         -4.5696   -2.1410   -3.4736 C.3     1  UNL11       0.0738
     15 C9         -3.6029   -1.2517   -2.7015 C.3     1  UNL11       0.0738
     16 O6         -4.1696   -0.9406   -1.4332 O.3     1  UNL11      -0.3518
     17 C10        -3.1620   -0.7244   -0.4657 C.3     1  UNL11       0.1483
     18 O7         -3.7259   -0.6323    0.8312 O.3     1  UNL11      -0.3518
     19 C11        -2.7191   -0.6619    1.8242 C.3     1  UNL11       0.0738
     20 C12        -3.2333   -1.4234    3.0243 C.3     1  UNL11       0.0738
     21 O8         -2.1437   -1.9327    3.7975 O.3     1  UNL11      -0.3518
     22 C13        -2.4328   -3.2296    4.3139 C.3     1  UNL11       0.1483
     23 O9         -1.2335   -3.8675    4.7450 O.3     1  UNL11      -0.3518
     24 C14        -1.3046   -5.2863    4.5306 C.3     1  UNL11       0.0738
     25 C15         0.0978   -5.8799    4.5216 C.3     1  UNL11       0.0738
     26 O10         0.0700   -7.2518    4.1263 O.3     1  UNL11      -0.3518
     27 C16         1.1032   -7.5992    3.2041 C.3     1  UNL11       0.1483
     28 O11         0.5620   -7.7888    1.9049 O.3     1  UNL11      -0.3518
     29 C17         1.5220   -7.6941    0.8574 C.3     1  UNL11       0.0738
     30 C18         0.7879   -7.4885   -0.4605 C.3     1  UNL11       0.0738
     31 O12         1.6873   -6.9986   -1.4590 O.3     1  UNL11      -0.3518
     32 C19         1.3855   -7.5619   -2.7309 C.3     1  UNL11       0.1483
     33 O13         1.8731   -6.7495   -3.7877 O.3     1  UNL11      -0.3518
     34 C20         1.5862   -7.3300   -5.0688 C.3     1  UNL11       0.0738
     35 C21         0.5277   -6.5276   -5.8229 C.3     1  UNL11       0.0738
     36 O14         0.9815   -5.2093   -6.1443 O.3     1  UNL11      -0.3518
     37 C22        -0.0343   -4.4777   -6.8259 C.3     1  UNL11       0.1483
     38 O15         0.2657   -3.0892   -6.8618 O.3     1  UNL11      -0.3518
     39 C23        -0.7708   -2.3284   -6.2532 C.3     1  UNL11       0.0738
     40 C24        -0.4502   -0.8575   -6.2735 C.3     1  UNL11       0.0738
     41 O16        -1.3930   -0.1720   -5.4451 O.3     1  UNL11      -0.3518
     42 C25        -0.7522    0.9609   -4.8843 C.3     1  UNL11       0.1483
     43 O17        -1.6356    1.7512   -4.1179 O.3     1  UNL11      -0.3518
     44 C26        -0.8475    2.6969   -3.3948 C.3     1  UNL11       0.0738
     45 C27        -1.5414    4.0380   -3.3804 C.3     1  UNL11       0.0738
     46 O18        -1.0060    4.8239   -2.3228 O.3     1  UNL11      -0.3518
     47 C28        -1.8095    5.9684   -2.0822 C.3     1  UNL11       0.1483
     48 O19        -1.7369    6.3027   -0.7046 O.3     1  UNL11      -0.3518
     49 C29        -2.7913    7.1842   -0.3201 C.3     1  UNL11       0.0738
     50 C30        -3.1798    6.9052    1.1263 C.3     1  UNL11       0.0738
     51 O20        -3.9189    5.6837    1.2301 O.3     1  UNL11      -0.3518
     52 C31        -4.2984    5.4253    2.5796 C.3     1  UNL11       0.1483
     53 O21        -4.3815    4.0296    2.8332 O.3     1  UNL11      -0.3518
     54 C32        -4.2902    3.7376    4.2275 C.3     1  UNL11       0.0738
     55 C33        -4.1356    2.2387    4.4712 C.3     1  UNL11       0.0738
     56 O22        -3.7444    2.0279    5.8386 O.3     1  UNL11      -0.3518
     57 C34        -3.3572    0.6786    6.0718 C.3     1  UNL11       0.1483
     58 O23        -2.2353    0.5939    6.9516 O.3     1  UNL11      -0.3518
     59 C35        -1.7750   -0.7612    7.0462 C.3     1  UNL11       0.0738
     60 C36        -0.3090   -0.8118    7.4677 C.3     1  UNL11       0.0738
     61 O24         0.4604   -0.2055    6.4309 O.3     1  UNL11      -0.3518
     62 C37         1.4754   -1.0355    5.8907 C.3     1  UNL11       0.1483
     63 O25         1.7298   -0.5312    4.5900 O.3     1  UNL11      -0.3518
     64 C38         1.2365   -1.4169    3.5956 C.3     1  UNL11       0.0738
     65 C39         0.6676   -0.7025    2.3901 C.3     1  UNL11       0.0738
     66 O26         1.5941   -0.5238    1.3334 O.3     1  UNL11      -0.3518
     67 C40         2.0345    0.8173    1.2049 C.3     1  UNL11       0.1483
     68 O27         2.0095    1.1186   -0.1806 O.3     1  UNL11      -0.3518
     69 C41         2.8101    2.2671   -0.4447 C.3     1  UNL11       0.0738
     70 C42         1.9130    3.4022   -0.9041 C.3     1  UNL11       0.0738
     71 O28         2.6747    4.5893   -1.0434 O.3     1  UNL11      -0.3518
     72 C43         1.9644    5.7407   -0.6189 C.3     1  UNL11       0.1483
     73 O29         2.7756    6.4987    0.2758 O.3     1  UNL11      -0.3518
     74 C44         2.3062    6.4585    1.6219 C.3     1  UNL11       0.0738
     75 C45         3.2311    5.6926    2.5649 C.3     1  UNL11       0.0738
     76 O30         3.2837    4.2907    2.2916 O.3     1  UNL11      -0.3518
     77 C46         3.8544    3.6030    3.3969 C.3     1  UNL11       0.1483
     78 O31         4.5005    2.4064    2.9922 O.3     1  UNL11      -0.3518
     79 C47         4.5202    1.4528    4.0578 C.3     1  UNL11       0.0738
     80 C48         5.4189    0.2802    3.6883 C.3     1  UNL11       0.0738
     81 O32         4.8465   -0.4589    2.6144 O.3     1  UNL11      -0.3518
     82 C49         5.7697   -0.7570    1.5790 C.3     1  UNL11       0.1483
     83 O33         5.2701   -0.3611    0.3072 O.3     1  UNL11      -0.3518
     84 C50         6.2628   -0.5809   -0.6941 C.3     1  UNL11       0.0738
     85 C51         5.7646   -0.2185   -2.0857 C.3     1  UNL11       0.0738
     86 O34         5.7064    1.1991   -2.2685 O.3     1  UNL11      -0.3518
     87 C52         5.4922    1.5050   -3.6401 C.3     1  UNL11       0.1483
     88 O35         5.1323    2.8698   -3.8477 O.3     1  UNL11      -0.3518
     89 C53         3.7232    3.0106   -3.9616 C.3     1  UNL11       0.0738
     90 C54         3.3018    4.4194   -4.3449 C.3     1  UNL11       0.0738
     91 O36         1.8906    4.4212   -4.5559 O.3     1  UNL11      -0.3518
     92 C55         1.4699    4.8889   -5.8253 C.3     1  UNL11       0.1483
     93 O37         0.7479    3.8759   -6.5271 O.3     1  UNL11      -0.3518
     94 C56         1.5242    3.1880   -7.5043 C.3     1  UNL11       0.0738
     95 C57         1.8560    1.7617   -7.0876 C.3     1  UNL11       0.0738
     96 O38         2.9779    1.3138   -7.8345 O.3     1  UNL11      -0.3518
     97 C58         3.7822    0.3819   -7.1311 C.3     1  UNL11       0.1483
     98 O39         3.4087   -0.9689   -7.3705 O.3     1  UNL11      -0.3518
     99 C59         4.3702   -1.8217   -6.7492 C.3     1  UNL11       0.0738
    100 C60         3.8806   -3.2533   -6.6412 C.3     1  UNL11       0.0738
    101 O40         4.7878   -3.9110   -5.7525 O.3     1  UNL11      -0.3518
    102 C61         4.1054   -4.6903   -4.7864 C.3     1  UNL11       0.1483
    103 O41         5.0019   -5.0752   -3.7493 O.3     1  UNL11      -0.3518
    104 C62         5.1574   -4.0744   -2.7477 C.3     1  UNL11       0.0738
    105 C63         4.9729   -4.7374   -1.3900 C.3     1  UNL11       0.0738
    106 O42         4.8964   -3.7523   -0.3641 O.3     1  UNL11      -0.3518
    107 C64         4.4995   -4.3257    0.8776 C.3     1  UNL11       0.1483
    108 O43         3.4929   -3.5208    1.4703 O.3     1  UNL11      -0.3518
    109 C65         2.4073   -4.2657    2.0095 C.3     1  UNL11       0.0738
    110 C66         1.1734   -4.0681    1.1451 C.3     1  UNL11       0.0738
    111 O44        -0.0105   -4.6960    1.6417 O.3     1  UNL11      -0.3518
    112 C67        -1.1602   -4.1850    0.9560 C.3     1  UNL11       0.1483
    113 O45        -2.3351   -4.9809    1.1450 O.3     1  UNL11      -0.3518
    114 C68        -3.4511   -4.4282    0.4270 C.3     1  UNL11       0.0738
    115 C69        -4.7201   -4.5024    1.2745 C.3     1  UNL11       0.0738
    116 O46        -5.6525   -3.5108    0.8573 O.3     1  UNL11      -0.3518
    117 C70        -6.4694   -3.0220    1.9127 C.3     1  UNL11       0.1483
    118 O47        -6.8738   -1.6825    1.6624 O.3     1  UNL11      -0.3518
    119 C71        -6.9751   -0.9075    2.8583 C.3     1  UNL11       0.0738
    120 C72        -7.2834    0.5460    2.5165 C.3     1  UNL11       0.0738
    121 O48        -6.1427    1.1254    1.8965 O.3     1  UNL11      -0.3518
    122 C73        -6.4706    2.0970    0.9144 C.3     1  UNL11       0.1483
    123 O49        -5.6828    1.9121   -0.2503 O.3     1  UNL11      -0.3518
    124 C74        -4.9757    3.0769   -0.6447 C.3     1  UNL11       0.0738
    125 C75        -3.4801    2.8198   -0.7281 C.3     1  UNL11       0.0739
    126 O50        -2.9273    2.4351    0.5248 O.3     1  UNL11      -0.3488
    127 C76        -1.5124    2.5217    0.5175 C.3     1  UNL11       0.1819
    128 O51        -1.0638    3.7536    1.0707 O.3     1  UNL11      -0.2037
    129 O52         0.0583    3.4007    1.9385 O.3     1  UNL11      -0.1978
    130 C77        -0.3568    3.7093    3.2663 C.3     1  UNL11       0.2214
    131 O53         0.1882    4.9758    3.6087 O.3     1  UNL11      -0.3383
    132 C78        -0.7482    5.7690    4.3161 C.3     1  UNL11       0.1131
    133 C79        -0.5303    7.2436    3.9468 C.3     1  UNL11       0.0730
    134 O54         0.7155    7.7628    4.3984 O.3     1  UNL11      -0.3924
    135 C80        -0.6770    5.4844    5.8122 C.3     1  UNL11       0.1118
    136 O55        -1.6999    6.2446    6.4844 O.3     1  UNL11      -0.3865
    137 C81        -0.8602    4.0010    6.1872 C.3     1  UNL11       0.1119
    138 O56        -0.9181    3.9743    7.6356 O.3     1  UNL11      -0.3865
    139 C82         0.2499    3.0588    5.7015 C.3     1  UNL11       0.1142
    140 O57         1.5250    3.6621    5.9549 O.3     1  UNL11      -0.3864
    141 C83         0.1009    2.6076    4.2366 C.3     1  UNL11       0.1369
    142 O58        -0.8759    1.5450    4.1902 O.3     1  UNL11      -0.3840
    143 H1          2.2721   -1.4445   -0.4139 H       1  UNL11       0.1189
    144 H2          3.3457   -2.3194   -1.2100 H       1  UNL11       0.1189
    145 H3          0.5498   -0.0028   -2.1506 H       1  UNL11       0.0577
    146 H4         -0.4365   -1.3141   -2.7776 H       1  UNL11       0.0577
    147 H5          0.4932   -0.8054   -0.1844 H       1  UNL11       0.2095
    148 H6          3.2267   -1.9095   -3.8646 H       1  UNL11       0.0577
    149 H7          1.6231   -1.7966   -4.5526 H       1  UNL11       0.0577
    150 H8          2.7042    0.1765   -2.8526 H       1  UNL11       0.2095
    151 H9          2.1707   -4.0242   -2.5661 H       1  UNL11       0.0580
    152 H10         0.9363   -3.6681   -1.3877 H       1  UNL11       0.0580
    153 H11        -0.5781   -5.2443   -2.1808 H       1  UNL11       0.0583
    154 H12        -1.2212   -3.5989   -1.9503 H       1  UNL11       0.0583
    155 H13        -2.2361   -3.6175   -4.1614 H       1  UNL11       0.0584
    156 H14        -1.7226   -5.2757   -4.4079 H       1  UNL11       0.0584
    157 H15        -4.2788   -4.3925   -4.5924 H       1  UNL11       0.0871
    158 H16        -5.1053   -5.3052   -3.3364 H       1  UNL11       0.0871
    159 H17        -4.2108   -2.2729   -4.4989 H       1  UNL11       0.0584
    160 H18        -5.5553   -1.6664   -3.5074 H       1  UNL11       0.0584
    161 H19        -2.6549   -1.7849   -2.5817 H       1  UNL11       0.0584
    162 H20        -3.4200   -0.3166   -3.2349 H       1  UNL11       0.0584
    163 H21        -2.4898   -1.5838   -0.4876 H       1  UNL11       0.0871
    164 H22        -2.5810    0.1674   -0.7027 H       1  UNL11       0.0871
    165 H23        -1.8473   -1.1697    1.4351 H       1  UNL11       0.0584
    166 H24        -2.4165    0.3441    2.1101 H       1  UNL11       0.0584
    167 H25        -3.8568   -0.7744    3.6375 H       1  UNL11       0.0584
    168 H26        -3.8798   -2.2248    2.6790 H       1  UNL11       0.0584
    169 H27        -3.1187   -3.1403    5.1620 H       1  UNL11       0.0871
    170 H28        -2.8995   -3.8204    3.5314 H       1  UNL11       0.0871
    171 H29        -1.9151   -5.7382    5.3182 H       1  UNL11       0.0584
    172 H30        -1.7818   -5.5207    3.5744 H       1  UNL11       0.0584
    173 H31         0.7301   -5.2711    3.8775 H       1  UNL11       0.0584
    174 H32         0.5390   -5.8180    5.5212 H       1  UNL11       0.0584
    175 H33         1.8975   -6.8496    3.2057 H       1  UNL11       0.0871
    176 H34         1.5485   -8.5382    3.5399 H       1  UNL11       0.0871
    177 H35         2.2078   -6.8635    1.0074 H       1  UNL11       0.0584
    178 H36         2.1369   -8.6007    0.8174 H       1  UNL11       0.0584
    179 H37         0.3203   -8.4355   -0.7560 H       1  UNL11       0.0584
    180 H38        -0.0170   -6.7551   -0.3408 H       1  UNL11       0.0584
    181 H39         1.8795   -8.5385   -2.7755 H       1  UNL11       0.0871
    182 H40         0.3015   -7.6754   -2.8517 H       1  UNL11       0.0871
    183 H41         2.5173   -7.3511   -5.6395 H       1  UNL11       0.0584
    184 H42         1.2366   -8.3627   -4.9596 H       1  UNL11       0.0584
    185 H43         0.2546   -7.0461   -6.7436 H       1  UNL11       0.0584
    186 H44        -0.3542   -6.4575   -5.1844 H       1  UNL11       0.0584
    187 H45        -0.0971   -4.8259   -7.8605 H       1  UNL11       0.0871
    188 H46        -1.0058   -4.6529   -6.3529 H       1  UNL11       0.0871
    189 H47        -1.7269   -2.5053   -6.7569 H       1  UNL11       0.0584
    190 H48        -0.8693   -2.6215   -5.2102 H       1  UNL11       0.0584
    191 H49         0.5749   -0.7052   -5.9258 H       1  UNL11       0.0584
    192 H50        -0.5085   -0.4644   -7.2905 H       1  UNL11       0.0584
    193 H51         0.0597    0.6149   -4.2484 H       1  UNL11       0.0871
    194 H52        -0.3714    1.5917   -5.6869 H       1  UNL11       0.0871
    195 H53        -0.6999    2.2960   -2.3955 H       1  UNL11       0.0584
    196 H54         0.1537    2.8210   -3.8200 H       1  UNL11       0.0584
    197 H55        -1.3948    4.5542   -4.3350 H       1  UNL11       0.0584
    198 H56        -2.6181    3.8801   -3.2557 H       1  UNL11       0.0584
    199 H57        -1.4438    6.8002   -2.6882 H       1  UNL11       0.0871
    200 H58        -2.8503    5.7522   -2.3416 H       1  UNL11       0.0871
    201 H59        -2.4153    8.2070   -0.4176 H       1  UNL11       0.0584
    202 H60        -3.6709    7.0608   -0.9595 H       1  UNL11       0.0584
    203 H61        -2.2768    6.8183    1.7317 H       1  UNL11       0.0584
    204 H62        -3.8073    7.7206    1.4993 H       1  UNL11       0.0584
    205 H63        -3.5767    5.8815    3.2572 H       1  UNL11       0.0871
    206 H64        -5.2740    5.8836    2.7614 H       1  UNL11       0.0871
    207 H65        -3.4256    4.2530    4.6512 H       1  UNL11       0.0584
    208 H66        -5.1709    4.1139    4.7434 H       1  UNL11       0.0584
    209 H67        -5.0789    1.7176    4.2820 H       1  UNL11       0.0584
    210 H68        -3.3863    1.8371    3.7830 H       1  UNL11       0.0584
    211 H69        -4.2055    0.1323    6.4981 H       1  UNL11       0.0871
    212 H70        -3.0583    0.2213    5.1350 H       1  UNL11       0.0871
    213 H71        -2.4052   -1.3004    7.7593 H       1  UNL11       0.0584
    214 H72        -1.8485   -1.2428    6.0729 H       1  UNL11       0.0584
    215 H73        -0.1514   -0.2270    8.3765 H       1  UNL11       0.0584
    216 H74        -0.0079   -1.8483    7.6519 H       1  UNL11       0.0584
    217 H75         2.3836   -0.9196    6.4872 H       1  UNL11       0.0871
    218 H76         1.2001   -2.0956    5.8900 H       1  UNL11       0.0871
    219 H77         2.0738   -2.0395    3.3027 H       1  UNL11       0.0584
    220 H78         0.4331   -2.0393    3.9985 H       1  UNL11       0.0584
    221 H79        -0.0551   -1.3870    1.9667 H       1  UNL11       0.0584
    222 H80         0.1397    0.2112    2.6389 H       1  UNL11       0.0584
    223 H81         1.3675    1.5170    1.6997 H       1  UNL11       0.0871
    224 H82         3.0314    0.9028    1.6261 H       1  UNL11       0.0871
    225 H83         3.4153    2.5812    0.4089 H       1  UNL11       0.0584
    226 H84         3.5242    1.9865   -1.2137 H       1  UNL11       0.0584
    227 H85         1.4487    3.1581   -1.8619 H       1  UNL11       0.0584
    228 H86         1.0967    3.5111   -0.1969 H       1  UNL11       0.0584
    229 H87         1.7943    6.3637   -1.5014 H       1  UNL11       0.0871
    230 H88         0.9736    5.5201   -0.2038 H       1  UNL11       0.0871
    231 H89         2.2868    7.5011    1.9573 H       1  UNL11       0.0584
    232 H90         1.2836    6.0829    1.6854 H       1  UNL11       0.0584
    233 H91         4.2506    6.0836    2.4865 H       1  UNL11       0.0584
    234 H92         2.8700    5.8444    3.5904 H       1  UNL11       0.0584
    235 H93         4.6081    4.2210    3.9039 H       1  UNL11       0.0871
    236 H94         3.0464    3.3816    4.0936 H       1  UNL11       0.0871
    237 H95         4.9067    1.9286    4.9651 H       1  UNL11       0.0584
    238 H96         3.4980    1.1125    4.2333 H       1  UNL11       0.0584
    239 H97         6.4162    0.6640    3.4491 H       1  UNL11       0.0584
    240 H98         5.5079   -0.3999    4.5417 H       1  UNL11       0.0584
    241 H99         6.7360   -0.2668    1.7377 H       1  UNL11       0.0871
    242 HA0         5.9333   -1.8386    1.5861 H       1  UNL11       0.0871
    243 HA1         7.1466    0.0207   -0.4572 H       1  UNL11       0.0584
    244 HA2         6.5350   -1.6424   -0.6873 H       1  UNL11       0.0584
    245 HA3         6.4551   -0.6452   -2.8214 H       1  UNL11       0.0584
    246 HA4         4.7723   -0.6323   -2.2601 H       1  UNL11       0.0584
    247 HA5         6.4261    1.3352   -4.1781 H       1  UNL11       0.0871
    248 HA6         4.7420    0.8316   -4.0641 H       1  UNL11       0.0871
    249 HA7         3.3676    2.3363   -4.7342 H       1  UNL11       0.0584
    250 HA8         3.2271    2.7013   -3.0504 H       1  UNL11       0.0584
    251 HA9         3.5362    5.1224   -3.5378 H       1  UNL11       0.0584
    252 HB0         3.8627    4.7483   -5.2237 H       1  UNL11       0.0584
    253 HB1         0.7556    5.6965   -5.6374 H       1  UNL11       0.0871
    254 HB2         2.2760    5.3216   -6.4275 H       1  UNL11       0.0871
    255 HB3         0.9173    3.1385   -8.4161 H       1  UNL11       0.0584
    256 HB4         2.4347    3.7364   -7.7703 H       1  UNL11       0.0584
    257 HB5         2.0097    1.7073   -6.0063 H       1  UNL11       0.0584
    258 HB6         1.0139    1.1107   -7.3178 H       1  UNL11       0.0584
    259 HB7         4.8085    0.5355   -7.4807 H       1  UNL11       0.0871
    260 HB8         3.7626    0.5740   -6.0568 H       1  UNL11       0.0871
    261 HB9         5.3125   -1.7932   -7.3087 H       1  UNL11       0.0584
    262 HC0         4.5921   -1.4591   -5.7362 H       1  UNL11       0.0584
    263 HC1         2.8488   -3.2671   -6.2791 H       1  UNL11       0.0584
    264 HC2         3.8964   -3.7526   -7.6157 H       1  UNL11       0.0584
    265 HC3         3.2461   -4.1553   -4.3776 H       1  UNL11       0.0871
    266 HC4         3.7466   -5.5963   -5.2698 H       1  UNL11       0.0871
    267 HC5         6.1509   -3.6207   -2.8314 H       1  UNL11       0.0584
    268 HC6         4.4423   -3.2604   -2.8501 H       1  UNL11       0.0584
    269 HC7         4.0463   -5.3230   -1.4082 H       1  UNL11       0.0584
    270 HC8         5.8035   -5.4224   -1.1875 H       1  UNL11       0.0584
    271 HC9         4.1669   -5.3607    0.7418 H       1  UNL11       0.0871
    272 HD0         5.3595   -4.3329    1.5538 H       1  UNL11       0.0871
    273 HD1         2.6660   -5.3137    2.1053 H       1  UNL11       0.0584
    274 HD2         2.2330   -3.9507    3.0361 H       1  UNL11       0.0584
    275 HD3         1.0024   -3.0029    0.9906 H       1  UNL11       0.0584
    276 HD4         1.4062   -4.5187    0.1849 H       1  UNL11       0.0584
    277 HD5        -1.3541   -3.1880    1.3448 H       1  UNL11       0.0871
    278 HD6        -0.9458   -4.1345   -0.1023 H       1  UNL11       0.0871
    279 HD7        -3.2668   -3.3880    0.1544 H       1  UNL11       0.0584
    280 HD8        -3.5882   -4.9809   -0.5023 H       1  UNL11       0.0584
    281 HD9        -5.1753   -5.4932    1.1964 H       1  UNL11       0.0584
    282 HE0        -4.4477   -4.3646    2.3219 H       1  UNL11       0.0584
    283 HE1        -7.3659   -3.6430    1.9864 H       1  UNL11       0.0871
    284 HE2        -5.9342   -3.0723    2.8662 H       1  UNL11       0.0871
    285 HE3        -7.7798   -1.3214    3.4745 H       1  UNL11       0.0584
    286 HE4        -6.0356   -0.9582    3.4155 H       1  UNL11       0.0584
    287 HE5        -8.1652    0.5839    1.8707 H       1  UNL11       0.0584
    288 HE6        -7.4846    1.1115    3.4330 H       1  UNL11       0.0584
    289 HE7        -7.5123    2.0158    0.5880 H       1  UNL11       0.0871
    290 HE8        -6.3551    3.0846    1.3697 H       1  UNL11       0.0871
    291 HE9        -5.3382    3.3486   -1.6423 H       1  UNL11       0.0584
    292 HF0        -5.1693    3.9253    0.0104 H       1  UNL11       0.0584
    293 HF1        -3.2812    2.0356   -1.4672 H       1  UNL11       0.0584
    294 HF2        -3.0056    3.7418   -1.0525 H       1  UNL11       0.0584
    295 HF3        -1.1204    1.6821    1.0924 H       1  UNL11       0.0902
    296 HF4        -1.0998    2.4188   -0.4831 H       1  UNL11       0.0902
    297 HF5        -1.4525    3.7196    3.2625 H       1  UNL11       0.0968
    298 HF6        -1.7541    5.5486    3.9686 H       1  UNL11       0.0647
    299 HF7        -0.5297    7.3508    2.8584 H       1  UNL11       0.0584
    300 HF8        -1.3407    7.8652    4.3427 H       1  UNL11       0.0584
    301 HF9         0.6484    7.8527    5.3629 H       1  UNL11       0.2095
    302 HG0         0.2796    5.8294    6.2196 H       1  UNL11       0.0647
    303 HG1        -1.8902    5.7434    7.3058 H       1  UNL11       0.2100
    304 HG2        -1.8286    3.6288    5.8579 H       1  UNL11       0.0647
    305 HG3        -0.0556    4.2906    7.9559 H       1  UNL11       0.2100
    306 HG4         0.2197    2.1666    6.3312 H       1  UNL11       0.0648
    307 HG5         1.8811    3.2292    6.7494 H       1  UNL11       0.2100
    308 HG6         1.0443    2.1781    3.8840 H       1  UNL11       0.0672
    309 HG7        -0.6006    0.8738    4.8489 H       1  UNL11       0.2101
@<TRIPOS>BOND
     1     1     2    1
     2     1   143    1
     3     1   144    1
     4     2     3    1
     5     2     5    1
     6     2     7    1
     7     3     4    1
     8     3   145    1
     9     3   146    1
    10     4   147    1
    11     5     6    1
    12     5   148    1
    13     5   149    1
    14     6   150    1
    15     7     8    1
    16     7   151    1
    17     7   152    1
    18     8     9    1
    19     9    10    1
    20     9   153    1
    21     9   154    1
    22    10    11    1
    23    10   155    1
    24    10   156    1
    25    11    12    1
    26    12    13    1
    27    12   157    1
    28    12   158    1
    29    13    14    1
    30    14    15    1
    31    14   159    1
    32    14   160    1
    33    15    16    1
    34    15   161    1
    35    15   162    1
    36    16    17    1
    37    17    18    1
    38    17   163    1
    39    17   164    1
    40    18    19    1
    41    19    20    1
    42    19   165    1
    43    19   166    1
    44    20    21    1
    45    20   167    1
    46    20   168    1
    47    21    22    1
    48    22    23    1
    49    22   169    1
    50    22   170    1
    51    23    24    1
    52    24    25    1
    53    24   171    1
    54    24   172    1
    55    25    26    1
    56    25   173    1
    57    25   174    1
    58    26    27    1
    59    27    28    1
    60    27   175    1
    61    27   176    1
    62    28    29    1
    63    29    30    1
    64    29   177    1
    65    29   178    1
    66    30    31    1
    67    30   179    1
    68    30   180    1
    69    31    32    1
    70    32    33    1
    71    32   181    1
    72    32   182    1
    73    33    34    1
    74    34    35    1
    75    34   183    1
    76    34   184    1
    77    35    36    1
    78    35   185    1
    79    35   186    1
    80    36    37    1
    81    37    38    1
    82    37   187    1
    83    37   188    1
    84    38    39    1
    85    39    40    1
    86    39   189    1
    87    39   190    1
    88    40    41    1
    89    40   191    1
    90    40   192    1
    91    41    42    1
    92    42    43    1
    93    42   193    1
    94    42   194    1
    95    43    44    1
    96    44    45    1
    97    44   195    1
    98    44   196    1
    99    45    46    1
   100    45   197    1
   101    45   198    1
   102    46    47    1
   103    47    48    1
   104    47   199    1
   105    47   200    1
   106    48    49    1
   107    49    50    1
   108    49   201    1
   109    49   202    1
   110    50    51    1
   111    50   203    1
   112    50   204    1
   113    51    52    1
   114    52    53    1
   115    52   205    1
   116    52   206    1
   117    53    54    1
   118    54    55    1
   119    54   207    1
   120    54   208    1
   121    55    56    1
   122    55   209    1
   123    55   210    1
   124    56    57    1
   125    57    58    1
   126    57   211    1
   127    57   212    1
   128    58    59    1
   129    59    60    1
   130    59   213    1
   131    59   214    1
   132    60    61    1
   133    60   215    1
   134    60   216    1
   135    61    62    1
   136    62    63    1
   137    62   217    1
   138    62   218    1
   139    63    64    1
   140    64    65    1
   141    64   219    1
   142    64   220    1
   143    65    66    1
   144    65   221    1
   145    65   222    1
   146    66    67    1
   147    67    68    1
   148    67   223    1
   149    67   224    1
   150    68    69    1
   151    69    70    1
   152    69   225    1
   153    69   226    1
   154    70    71    1
   155    70   227    1
   156    70   228    1
   157    71    72    1
   158    72    73    1
   159    72   229    1
   160    72   230    1
   161    73    74    1
   162    74    75    1
   163    74   231    1
   164    74   232    1
   165    75    76    1
   166    75   233    1
   167    75   234    1
   168    76    77    1
   169    77    78    1
   170    77   235    1
   171    77   236    1
   172    78    79    1
   173    79    80    1
   174    79   237    1
   175    79   238    1
   176    80    81    1
   177    80   239    1
   178    80   240    1
   179    81    82    1
   180    82    83    1
   181    82   241    1
   182    82   242    1
   183    83    84    1
   184    84    85    1
   185    84   243    1
   186    84   244    1
   187    85    86    1
   188    85   245    1
   189    85   246    1
   190    86    87    1
   191    87    88    1
   192    87   247    1
   193    87   248    1
   194    88    89    1
   195    89    90    1
   196    89   249    1
   197    89   250    1
   198    90    91    1
   199    90   251    1
   200    90   252    1
   201    91    92    1
   202    92    93    1
   203    92   253    1
   204    92   254    1
   205    93    94    1
   206    94    95    1
   207    94   255    1
   208    94   256    1
   209    95    96    1
   210    95   257    1
   211    95   258    1
   212    96    97    1
   213    97    98    1
   214    97   259    1
   215    97   260    1
   216    98    99    1
   217    99   100    1
   218    99   261    1
   219    99   262    1
   220   100   101    1
   221   100   263    1
   222   100   264    1
   223   101   102    1
   224   102   103    1
   225   102   265    1
   226   102   266    1
   227   103   104    1
   228   104   105    1
   229   104   267    1
   230   104   268    1
   231   105   106    1
   232   105   269    1
   233   105   270    1
   234   106   107    1
   235   107   108    1
   236   107   271    1
   237   107   272    1
   238   108   109    1
   239   109   110    1
   240   109   273    1
   241   109   274    1
   242   110   111    1
   243   110   275    1
   244   110   276    1
   245   111   112    1
   246   112   113    1
   247   112   277    1
   248   112   278    1
   249   113   114    1
   250   114   115    1
   251   114   279    1
   252   114   280    1
   253   115   116    1
   254   115   281    1
   255   115   282    1
   256   116   117    1
   257   117   118    1
   258   117   283    1
   259   117   284    1
   260   118   119    1
   261   119   120    1
   262   119   285    1
   263   119   286    1
   264   120   121    1
   265   120   287    1
   266   120   288    1
   267   121   122    1
   268   122   123    1
   269   122   289    1
   270   122   290    1
   271   123   124    1
   272   124   125    1
   273   124   291    1
   274   124   292    1
   275   125   126    1
   276   125   293    1
   277   125   294    1
   278   126   127    1
   279   127   128    1
   280   127   295    1
   281   127   296    1
   282   128   129    1
   283   129   130    1
   284   130   131    1
   285   130   141    1
   286   130   297    1
   287   131   132    1
   288   132   133    1
   289   132   135    1
   290   132   298    1
   291   133   134    1
   292   133   299    1
   293   133   300    1
   294   134   301    1
   295   135   136    1
   296   135   137    1
   297   135   302    1
   298   136   303    1
   299   137   138    1
   300   137   139    1
   301   137   304    1
   302   138   305    1
   303   139   140    1
   304   139   141    1
   305   139   306    1
   306   140   307    1
   307   141   142    1
   308   141   308    1
   309   142   309    1
