1arm_peg24_glc.pdb
 OpenBabel01182605323D

309309  0  0  1  0  0  0  0  0999 V2000
    2.6692   -1.5993   -1.3418 N   0  0  0  0  0  0  0  0  0  0  0  0
    1.6368   -1.9022   -2.3659 C   0  0  0  0  0  0  0  0  0  0  0  0
    0.3649   -1.0810   -2.0706 C   0  0  0  0  0  0  0  0  0  0  0  0
   -0.1203   -1.3136   -0.7468 O   0  0  0  0  0  0  0  0  0  0  0  0
    2.2382   -1.4805   -3.7137 C   0  0  0  0  0  0  0  0  0  0  0  0
    2.4189   -0.0582   -3.7657 O   0  0  0  0  0  0  0  0  0  0  0  0
    1.2905   -3.4087   -2.3742 C   0  0  0  0  0  0  0  0  0  0  0  0
    0.2851   -3.7472   -3.3349 O   0  0  0  0  0  0  0  0  0  0  0  0
   -0.8570   -4.3135   -2.6877 C   0  0  0  0  0  0  0  0  0  0  0  0
   -1.9964   -4.5511   -3.6488 C   0  0  0  0  0  0  0  0  0  0  0  0
   -3.1296   -5.0659   -2.9742 O   0  0  0  0  0  0  0  0  0  0  0  0
   -4.3413   -4.5432   -3.5069 C   0  0  0  0  0  0  0  0  0  0  0  0
   -4.7417   -3.3900   -2.7972 O   0  0  0  0  0  0  0  0  0  0  0  0
   -4.5696   -2.1410   -3.4736 C   0  0  0  0  0  0  0  0  0  0  0  0
   -3.6029   -1.2517   -2.7015 C   0  0  0  0  0  0  0  0  0  0  0  0
   -4.1696   -0.9406   -1.4332 O   0  0  0  0  0  0  0  0  0  0  0  0
   -3.1620   -0.7244   -0.4657 C   0  0  0  0  0  0  0  0  0  0  0  0
   -3.7259   -0.6323    0.8312 O   0  0  0  0  0  0  0  0  0  0  0  0
   -2.7191   -0.6619    1.8242 C   0  0  0  0  0  0  0  0  0  0  0  0
   -3.2333   -1.4234    3.0243 C   0  0  0  0  0  0  0  0  0  0  0  0
   -2.1437   -1.9327    3.7975 O   0  0  0  0  0  0  0  0  0  0  0  0
   -2.4328   -3.2296    4.3139 C   0  0  0  0  0  0  0  0  0  0  0  0
   -1.2335   -3.8675    4.7450 O   0  0  0  0  0  0  0  0  0  0  0  0
   -1.3046   -5.2863    4.5306 C   0  0  0  0  0  0  0  0  0  0  0  0
    0.0978   -5.8799    4.5216 C   0  0  0  0  0  0  0  0  0  0  0  0
    0.0700   -7.2518    4.1263 O   0  0  0  0  0  0  0  0  0  0  0  0
    1.1032   -7.5992    3.2041 C   0  0  0  0  0  0  0  0  0  0  0  0
    0.5620   -7.7888    1.9049 O   0  0  0  0  0  0  0  0  0  0  0  0
    1.5220   -7.6941    0.8574 C   0  0  0  0  0  0  0  0  0  0  0  0
    0.7879   -7.4885   -0.4605 C   0  0  0  0  0  0  0  0  0  0  0  0
    1.6873   -6.9986   -1.4590 O   0  0  0  0  0  0  0  0  0  0  0  0
    1.3855   -7.5619   -2.7309 C   0  0  0  0  0  0  0  0  0  0  0  0
    1.8731   -6.7495   -3.7877 O   0  0  0  0  0  0  0  0  0  0  0  0
    1.5862   -7.3300   -5.0688 C   0  0  0  0  0  0  0  0  0  0  0  0
    0.5277   -6.5276   -5.8229 C   0  0  0  0  0  0  0  0  0  0  0  0
    0.9815   -5.2093   -6.1443 O   0  0  0  0  0  0  0  0  0  0  0  0
   -0.0343   -4.4777   -6.8259 C   0  0  0  0  0  0  0  0  0  0  0  0
    0.2657   -3.0892   -6.8618 O   0  0  0  0  0  0  0  0  0  0  0  0
   -0.7708   -2.3284   -6.2532 C   0  0  0  0  0  0  0  0  0  0  0  0
   -0.4502   -0.8575   -6.2735 C   0  0  0  0  0  0  0  0  0  0  0  0
   -1.3930   -0.1720   -5.4451 O   0  0  0  0  0  0  0  0  0  0  0  0
   -0.7522    0.9609   -4.8843 C   0  0  0  0  0  0  0  0  0  0  0  0
   -1.6356    1.7512   -4.1179 O   0  0  0  0  0  0  0  0  0  0  0  0
   -0.8475    2.6969   -3.3948 C   0  0  0  0  0  0  0  0  0  0  0  0
   -1.5414    4.0380   -3.3804 C   0  0  0  0  0  0  0  0  0  0  0  0
   -1.0060    4.8239   -2.3228 O   0  0  0  0  0  0  0  0  0  0  0  0
   -1.8095    5.9684   -2.0822 C   0  0  0  0  0  0  0  0  0  0  0  0
   -1.7369    6.3027   -0.7046 O   0  0  0  0  0  0  0  0  0  0  0  0
   -2.7913    7.1842   -0.3201 C   0  0  0  0  0  0  0  0  0  0  0  0
   -3.1798    6.9052    1.1263 C   0  0  0  0  0  0  0  0  0  0  0  0
   -3.9189    5.6837    1.2301 O   0  0  0  0  0  0  0  0  0  0  0  0
   -4.2984    5.4253    2.5796 C   0  0  0  0  0  0  0  0  0  0  0  0
   -4.3815    4.0296    2.8332 O   0  0  0  0  0  0  0  0  0  0  0  0
   -4.2902    3.7376    4.2275 C   0  0  0  0  0  0  0  0  0  0  0  0
   -4.1356    2.2387    4.4712 C   0  0  0  0  0  0  0  0  0  0  0  0
   -3.7444    2.0279    5.8386 O   0  0  0  0  0  0  0  0  0  0  0  0
   -3.3572    0.6786    6.0718 C   0  0  0  0  0  0  0  0  0  0  0  0
   -2.2353    0.5939    6.9516 O   0  0  0  0  0  0  0  0  0  0  0  0
   -1.7750   -0.7612    7.0462 C   0  0  0  0  0  0  0  0  0  0  0  0
   -0.3090   -0.8118    7.4677 C   0  0  0  0  0  0  0  0  0  0  0  0
    0.4604   -0.2055    6.4309 O   0  0  0  0  0  0  0  0  0  0  0  0
    1.4754   -1.0355    5.8907 C   0  0  0  0  0  0  0  0  0  0  0  0
    1.7298   -0.5312    4.5900 O   0  0  0  0  0  0  0  0  0  0  0  0
    1.2365   -1.4169    3.5956 C   0  0  0  0  0  0  0  0  0  0  0  0
    0.6676   -0.7025    2.3901 C   0  0  0  0  0  0  0  0  0  0  0  0
    1.5941   -0.5238    1.3334 O   0  0  0  0  0  0  0  0  0  0  0  0
    2.0345    0.8173    1.2049 C   0  0  0  0  0  0  0  0  0  0  0  0
    2.0095    1.1186   -0.1806 O   0  0  0  0  0  0  0  0  0  0  0  0
    2.8101    2.2671   -0.4447 C   0  0  0  0  0  0  0  0  0  0  0  0
    1.9130    3.4022   -0.9041 C   0  0  0  0  0  0  0  0  0  0  0  0
    2.6747    4.5893   -1.0434 O   0  0  0  0  0  0  0  0  0  0  0  0
    1.9644    5.7407   -0.6189 C   0  0  0  0  0  0  0  0  0  0  0  0
    2.7756    6.4987    0.2758 O   0  0  0  0  0  0  0  0  0  0  0  0
    2.3062    6.4585    1.6219 C   0  0  0  0  0  0  0  0  0  0  0  0
    3.2311    5.6926    2.5649 C   0  0  0  0  0  0  0  0  0  0  0  0
    3.2837    4.2907    2.2916 O   0  0  0  0  0  0  0  0  0  0  0  0
    3.8544    3.6030    3.3969 C   0  0  0  0  0  0  0  0  0  0  0  0
    4.5005    2.4064    2.9922 O   0  0  0  0  0  0  0  0  0  0  0  0
    4.5202    1.4528    4.0578 C   0  0  0  0  0  0  0  0  0  0  0  0
    5.4189    0.2802    3.6883 C   0  0  0  0  0  0  0  0  0  0  0  0
    4.8465   -0.4589    2.6144 O   0  0  0  0  0  0  0  0  0  0  0  0
    5.7697   -0.7570    1.5790 C   0  0  0  0  0  0  0  0  0  0  0  0
    5.2701   -0.3611    0.3072 O   0  0  0  0  0  0  0  0  0  0  0  0
    6.2628   -0.5809   -0.6941 C   0  0  0  0  0  0  0  0  0  0  0  0
    5.7646   -0.2185   -2.0857 C   0  0  0  0  0  0  0  0  0  0  0  0
    5.7064    1.1991   -2.2685 O   0  0  0  0  0  0  0  0  0  0  0  0
    5.4922    1.5050   -3.6401 C   0  0  0  0  0  0  0  0  0  0  0  0
    5.1323    2.8698   -3.8477 O   0  0  0  0  0  0  0  0  0  0  0  0
    3.7232    3.0106   -3.9616 C   0  0  0  0  0  0  0  0  0  0  0  0
    3.3018    4.4194   -4.3449 C   0  0  0  0  0  0  0  0  0  0  0  0
    1.8906    4.4212   -4.5559 O   0  0  0  0  0  0  0  0  0  0  0  0
    1.4699    4.8889   -5.8253 C   0  0  0  0  0  0  0  0  0  0  0  0
    0.7479    3.8759   -6.5271 O   0  0  0  0  0  0  0  0  0  0  0  0
    1.5242    3.1880   -7.5043 C   0  0  0  0  0  0  0  0  0  0  0  0
    1.8560    1.7617   -7.0876 C   0  0  0  0  0  0  0  0  0  0  0  0
    2.9779    1.3138   -7.8345 O   0  0  0  0  0  0  0  0  0  0  0  0
    3.7822    0.3819   -7.1311 C   0  0  0  0  0  0  0  0  0  0  0  0
    3.4087   -0.9689   -7.3705 O   0  0  0  0  0  0  0  0  0  0  0  0
    4.3702   -1.8217   -6.7492 C   0  0  0  0  0  0  0  0  0  0  0  0
    3.8806   -3.2533   -6.6412 C   0  0  0  0  0  0  0  0  0  0  0  0
    4.7878   -3.9110   -5.7525 O   0  0  0  0  0  0  0  0  0  0  0  0
    4.1054   -4.6903   -4.7864 C   0  0  0  0  0  0  0  0  0  0  0  0
    5.0019   -5.0752   -3.7493 O   0  0  0  0  0  0  0  0  0  0  0  0
    5.1574   -4.0744   -2.7477 C   0  0  0  0  0  0  0  0  0  0  0  0
    4.9729   -4.7374   -1.3900 C   0  0  0  0  0  0  0  0  0  0  0  0
    4.8964   -3.7523   -0.3641 O   0  0  0  0  0  0  0  0  0  0  0  0
    4.4995   -4.3257    0.8776 C   0  0  0  0  0  0  0  0  0  0  0  0
    3.4929   -3.5208    1.4703 O   0  0  0  0  0  0  0  0  0  0  0  0
    2.4073   -4.2657    2.0095 C   0  0  0  0  0  0  0  0  0  0  0  0
    1.1734   -4.0681    1.1451 C   0  0  0  0  0  0  0  0  0  0  0  0
   -0.0105   -4.6960    1.6417 O   0  0  0  0  0  0  0  0  0  0  0  0
   -1.1602   -4.1850    0.9560 C   0  0  0  0  0  0  0  0  0  0  0  0
   -2.3351   -4.9809    1.1450 O   0  0  0  0  0  0  0  0  0  0  0  0
   -3.4511   -4.4282    0.4270 C   0  0  0  0  0  0  0  0  0  0  0  0
   -4.7201   -4.5024    1.2745 C   0  0  0  0  0  0  0  0  0  0  0  0
   -5.6525   -3.5108    0.8573 O   0  0  0  0  0  0  0  0  0  0  0  0
   -6.4694   -3.0220    1.9127 C   0  0  0  0  0  0  0  0  0  0  0  0
   -6.8738   -1.6825    1.6624 O   0  0  0  0  0  0  0  0  0  0  0  0
   -6.9751   -0.9075    2.8583 C   0  0  0  0  0  0  0  0  0  0  0  0
   -7.2834    0.5460    2.5165 C   0  0  0  0  0  0  0  0  0  0  0  0
   -6.1427    1.1254    1.8965 O   0  0  0  0  0  0  0  0  0  0  0  0
   -6.4706    2.0970    0.9144 C   0  0  0  0  0  0  0  0  0  0  0  0
   -5.6828    1.9121   -0.2503 O   0  0  0  0  0  0  0  0  0  0  0  0
   -4.9757    3.0769   -0.6447 C   0  0  0  0  0  0  0  0  0  0  0  0
   -3.4801    2.8198   -0.7281 C   0  0  0  0  0  0  0  0  0  0  0  0
   -2.9273    2.4351    0.5248 O   0  0  0  0  0  0  0  0  0  0  0  0
   -1.5124    2.5217    0.5175 C   0  0  0  0  0  0  0  0  0  0  0  0
   -1.0638    3.7536    1.0707 O   0  0  0  0  0  0  0  0  0  0  0  0
    0.0583    3.4007    1.9385 O   0  0  0  0  0  0  0  0  0  0  0  0
   -0.3568    3.7093    3.2663 C   0  0  2  0  0  0  0  0  0  0  0  0
    0.1882    4.9758    3.6087 O   0  0  0  0  0  0  0  0  0  0  0  0
   -0.7482    5.7690    4.3161 C   0  0  2  0  0  0  0  0  0  0  0  0
   -0.5303    7.2436    3.9468 C   0  0  0  0  0  0  0  0  0  0  0  0
    0.7155    7.7628    4.3984 O   0  0  0  0  0  0  0  0  0  0  0  0
   -0.6770    5.4844    5.8122 C   0  0  1  0  0  0  0  0  0  0  0  0
   -1.6999    6.2446    6.4844 O   0  0  0  0  0  0  0  0  0  0  0  0
   -0.8602    4.0010    6.1872 C   0  0  2  0  0  0  0  0  0  0  0  0
   -0.9181    3.9743    7.6356 O   0  0  0  0  0  0  0  0  0  0  0  0
    0.2499    3.0588    5.7015 C   0  0  2  0  0  0  0  0  0  0  0  0
    1.5250    3.6621    5.9549 O   0  0  0  0  0  0  0  0  0  0  0  0
    0.1009    2.6076    4.2366 C   0  0  1  0  0  0  0  0  0  0  0  0
   -0.8759    1.5450    4.1902 O   0  0  0  0  0  0  0  0  0  0  0  0
    2.2721   -1.4445   -0.4139 H   0  0  0  0  0  0  0  0  0  0  0  0
    3.3457   -2.3194   -1.2100 H   0  0  0  0  0  0  0  0  0  0  0  0
    0.5498   -0.0028   -2.1506 H   0  0  0  0  0  0  0  0  0  0  0  0
   -0.4365   -1.3141   -2.7776 H   0  0  0  0  0  0  0  0  0  0  0  0
    0.4932   -0.8054   -0.1844 H   0  0  0  0  0  0  0  0  0  0  0  0
    3.2267   -1.9095   -3.8646 H   0  0  0  0  0  0  0  0  0  0  0  0
    1.6231   -1.7966   -4.5526 H   0  0  0  0  0  0  0  0  0  0  0  0
    2.7042    0.1765   -2.8526 H   0  0  0  0  0  0  0  0  0  0  0  0
    2.1707   -4.0242   -2.5661 H   0  0  0  0  0  0  0  0  0  0  0  0
    0.9363   -3.6681   -1.3877 H   0  0  0  0  0  0  0  0  0  0  0  0
   -0.5781   -5.2443   -2.1808 H   0  0  0  0  0  0  0  0  0  0  0  0
   -1.2212   -3.5989   -1.9503 H   0  0  0  0  0  0  0  0  0  0  0  0
   -2.2361   -3.6175   -4.1614 H   0  0  0  0  0  0  0  0  0  0  0  0
   -1.7226   -5.2757   -4.4079 H   0  0  0  0  0  0  0  0  0  0  0  0
   -4.2788   -4.3925   -4.5924 H   0  0  0  0  0  0  0  0  0  0  0  0
   -5.1053   -5.3052   -3.3364 H   0  0  0  0  0  0  0  0  0  0  0  0
   -4.2108   -2.2729   -4.4989 H   0  0  0  0  0  0  0  0  0  0  0  0
   -5.5553   -1.6664   -3.5074 H   0  0  0  0  0  0  0  0  0  0  0  0
   -2.6549   -1.7849   -2.5817 H   0  0  0  0  0  0  0  0  0  0  0  0
   -3.4200   -0.3166   -3.2349 H   0  0  0  0  0  0  0  0  0  0  0  0
   -2.4898   -1.5838   -0.4876 H   0  0  0  0  0  0  0  0  0  0  0  0
   -2.5810    0.1674   -0.7027 H   0  0  0  0  0  0  0  0  0  0  0  0
   -1.8473   -1.1697    1.4351 H   0  0  0  0  0  0  0  0  0  0  0  0
   -2.4165    0.3441    2.1101 H   0  0  0  0  0  0  0  0  0  0  0  0
   -3.8568   -0.7744    3.6375 H   0  0  0  0  0  0  0  0  0  0  0  0
   -3.8798   -2.2248    2.6790 H   0  0  0  0  0  0  0  0  0  0  0  0
   -3.1187   -3.1403    5.1620 H   0  0  0  0  0  0  0  0  0  0  0  0
   -2.8995   -3.8204    3.5314 H   0  0  0  0  0  0  0  0  0  0  0  0
   -1.9151   -5.7382    5.3182 H   0  0  0  0  0  0  0  0  0  0  0  0
   -1.7818   -5.5207    3.5744 H   0  0  0  0  0  0  0  0  0  0  0  0
    0.7301   -5.2711    3.8775 H   0  0  0  0  0  0  0  0  0  0  0  0
    0.5390   -5.8180    5.5212 H   0  0  0  0  0  0  0  0  0  0  0  0
    1.8975   -6.8496    3.2057 H   0  0  0  0  0  0  0  0  0  0  0  0
    1.5485   -8.5382    3.5399 H   0  0  0  0  0  0  0  0  0  0  0  0
    2.2078   -6.8635    1.0074 H   0  0  0  0  0  0  0  0  0  0  0  0
    2.1369   -8.6007    0.8174 H   0  0  0  0  0  0  0  0  0  0  0  0
    0.3203   -8.4355   -0.7560 H   0  0  0  0  0  0  0  0  0  0  0  0
   -0.0170   -6.7551   -0.3408 H   0  0  0  0  0  0  0  0  0  0  0  0
    1.8795   -8.5385   -2.7755 H   0  0  0  0  0  0  0  0  0  0  0  0
    0.3015   -7.6754   -2.8517 H   0  0  0  0  0  0  0  0  0  0  0  0
    2.5173   -7.3511   -5.6395 H   0  0  0  0  0  0  0  0  0  0  0  0
    1.2366   -8.3627   -4.9596 H   0  0  0  0  0  0  0  0  0  0  0  0
    0.2546   -7.0461   -6.7436 H   0  0  0  0  0  0  0  0  0  0  0  0
   -0.3542   -6.4575   -5.1844 H   0  0  0  0  0  0  0  0  0  0  0  0
   -0.0971   -4.8259   -7.8605 H   0  0  0  0  0  0  0  0  0  0  0  0
   -1.0058   -4.6529   -6.3529 H   0  0  0  0  0  0  0  0  0  0  0  0
   -1.7269   -2.5053   -6.7569 H   0  0  0  0  0  0  0  0  0  0  0  0
   -0.8693   -2.6215   -5.2102 H   0  0  0  0  0  0  0  0  0  0  0  0
    0.5749   -0.7052   -5.9258 H   0  0  0  0  0  0  0  0  0  0  0  0
   -0.5085   -0.4644   -7.2905 H   0  0  0  0  0  0  0  0  0  0  0  0
    0.0597    0.6149   -4.2484 H   0  0  0  0  0  0  0  0  0  0  0  0
   -0.3714    1.5917   -5.6869 H   0  0  0  0  0  0  0  0  0  0  0  0
   -0.6999    2.2960   -2.3955 H   0  0  0  0  0  0  0  0  0  0  0  0
    0.1537    2.8210   -3.8200 H   0  0  0  0  0  0  0  0  0  0  0  0
   -1.3948    4.5542   -4.3350 H   0  0  0  0  0  0  0  0  0  0  0  0
   -2.6181    3.8801   -3.2557 H   0  0  0  0  0  0  0  0  0  0  0  0
   -1.4438    6.8002   -2.6882 H   0  0  0  0  0  0  0  0  0  0  0  0
   -2.8503    5.7522   -2.3416 H   0  0  0  0  0  0  0  0  0  0  0  0
   -2.4153    8.2070   -0.4176 H   0  0  0  0  0  0  0  0  0  0  0  0
   -3.6709    7.0608   -0.9595 H   0  0  0  0  0  0  0  0  0  0  0  0
   -2.2768    6.8183    1.7317 H   0  0  0  0  0  0  0  0  0  0  0  0
   -3.8073    7.7206    1.4993 H   0  0  0  0  0  0  0  0  0  0  0  0
   -3.5767    5.8815    3.2572 H   0  0  0  0  0  0  0  0  0  0  0  0
   -5.2740    5.8836    2.7614 H   0  0  0  0  0  0  0  0  0  0  0  0
   -3.4256    4.2530    4.6512 H   0  0  0  0  0  0  0  0  0  0  0  0
   -5.1709    4.1139    4.7434 H   0  0  0  0  0  0  0  0  0  0  0  0
   -5.0789    1.7176    4.2820 H   0  0  0  0  0  0  0  0  0  0  0  0
   -3.3863    1.8371    3.7830 H   0  0  0  0  0  0  0  0  0  0  0  0
   -4.2055    0.1323    6.4981 H   0  0  0  0  0  0  0  0  0  0  0  0
   -3.0583    0.2213    5.1350 H   0  0  0  0  0  0  0  0  0  0  0  0
   -2.4052   -1.3004    7.7593 H   0  0  0  0  0  0  0  0  0  0  0  0
   -1.8485   -1.2428    6.0729 H   0  0  0  0  0  0  0  0  0  0  0  0
   -0.1514   -0.2270    8.3765 H   0  0  0  0  0  0  0  0  0  0  0  0
   -0.0079   -1.8483    7.6519 H   0  0  0  0  0  0  0  0  0  0  0  0
    2.3836   -0.9196    6.4872 H   0  0  0  0  0  0  0  0  0  0  0  0
    1.2001   -2.0956    5.8900 H   0  0  0  0  0  0  0  0  0  0  0  0
    2.0738   -2.0395    3.3027 H   0  0  0  0  0  0  0  0  0  0  0  0
    0.4331   -2.0393    3.9985 H   0  0  0  0  0  0  0  0  0  0  0  0
   -0.0551   -1.3870    1.9667 H   0  0  0  0  0  0  0  0  0  0  0  0
    0.1397    0.2112    2.6389 H   0  0  0  0  0  0  0  0  0  0  0  0
    1.3675    1.5170    1.6997 H   0  0  0  0  0  0  0  0  0  0  0  0
    3.0314    0.9028    1.6261 H   0  0  0  0  0  0  0  0  0  0  0  0
    3.4153    2.5812    0.4089 H   0  0  0  0  0  0  0  0  0  0  0  0
    3.5242    1.9865   -1.2137 H   0  0  0  0  0  0  0  0  0  0  0  0
    1.4487    3.1581   -1.8619 H   0  0  0  0  0  0  0  0  0  0  0  0
    1.0967    3.5111   -0.1969 H   0  0  0  0  0  0  0  0  0  0  0  0
    1.7943    6.3637   -1.5014 H   0  0  0  0  0  0  0  0  0  0  0  0
    0.9736    5.5201   -0.2038 H   0  0  0  0  0  0  0  0  0  0  0  0
    2.2868    7.5011    1.9573 H   0  0  0  0  0  0  0  0  0  0  0  0
    1.2836    6.0829    1.6854 H   0  0  0  0  0  0  0  0  0  0  0  0
    4.2506    6.0836    2.4865 H   0  0  0  0  0  0  0  0  0  0  0  0
    2.8700    5.8444    3.5904 H   0  0  0  0  0  0  0  0  0  0  0  0
    4.6081    4.2210    3.9039 H   0  0  0  0  0  0  0  0  0  0  0  0
    3.0464    3.3816    4.0936 H   0  0  0  0  0  0  0  0  0  0  0  0
    4.9067    1.9286    4.9651 H   0  0  0  0  0  0  0  0  0  0  0  0
    3.4980    1.1125    4.2333 H   0  0  0  0  0  0  0  0  0  0  0  0
    6.4162    0.6640    3.4491 H   0  0  0  0  0  0  0  0  0  0  0  0
    5.5079   -0.3999    4.5417 H   0  0  0  0  0  0  0  0  0  0  0  0
    6.7360   -0.2668    1.7377 H   0  0  0  0  0  0  0  0  0  0  0  0
    5.9333   -1.8386    1.5861 H   0  0  0  0  0  0  0  0  0  0  0  0
    7.1466    0.0207   -0.4572 H   0  0  0  0  0  0  0  0  0  0  0  0
    6.5350   -1.6424   -0.6873 H   0  0  0  0  0  0  0  0  0  0  0  0
    6.4551   -0.6452   -2.8214 H   0  0  0  0  0  0  0  0  0  0  0  0
    4.7723   -0.6323   -2.2601 H   0  0  0  0  0  0  0  0  0  0  0  0
    6.4261    1.3352   -4.1781 H   0  0  0  0  0  0  0  0  0  0  0  0
    4.7420    0.8316   -4.0641 H   0  0  0  0  0  0  0  0  0  0  0  0
    3.3676    2.3363   -4.7342 H   0  0  0  0  0  0  0  0  0  0  0  0
    3.2271    2.7013   -3.0504 H   0  0  0  0  0  0  0  0  0  0  0  0
    3.5362    5.1224   -3.5378 H   0  0  0  0  0  0  0  0  0  0  0  0
    3.8627    4.7483   -5.2237 H   0  0  0  0  0  0  0  0  0  0  0  0
    0.7556    5.6965   -5.6374 H   0  0  0  0  0  0  0  0  0  0  0  0
    2.2760    5.3216   -6.4275 H   0  0  0  0  0  0  0  0  0  0  0  0
    0.9173    3.1385   -8.4161 H   0  0  0  0  0  0  0  0  0  0  0  0
    2.4347    3.7364   -7.7703 H   0  0  0  0  0  0  0  0  0  0  0  0
    2.0097    1.7073   -6.0063 H   0  0  0  0  0  0  0  0  0  0  0  0
    1.0139    1.1107   -7.3178 H   0  0  0  0  0  0  0  0  0  0  0  0
    4.8085    0.5355   -7.4807 H   0  0  0  0  0  0  0  0  0  0  0  0
    3.7626    0.5740   -6.0568 H   0  0  0  0  0  0  0  0  0  0  0  0
    5.3125   -1.7932   -7.3087 H   0  0  0  0  0  0  0  0  0  0  0  0
    4.5921   -1.4591   -5.7362 H   0  0  0  0  0  0  0  0  0  0  0  0
    2.8488   -3.2671   -6.2791 H   0  0  0  0  0  0  0  0  0  0  0  0
    3.8964   -3.7526   -7.6157 H   0  0  0  0  0  0  0  0  0  0  0  0
    3.2461   -4.1553   -4.3776 H   0  0  0  0  0  0  0  0  0  0  0  0
    3.7466   -5.5963   -5.2698 H   0  0  0  0  0  0  0  0  0  0  0  0
    6.1509   -3.6207   -2.8314 H   0  0  0  0  0  0  0  0  0  0  0  0
    4.4423   -3.2604   -2.8501 H   0  0  0  0  0  0  0  0  0  0  0  0
    4.0463   -5.3230   -1.4082 H   0  0  0  0  0  0  0  0  0  0  0  0
    5.8035   -5.4224   -1.1875 H   0  0  0  0  0  0  0  0  0  0  0  0
    4.1669   -5.3607    0.7418 H   0  0  0  0  0  0  0  0  0  0  0  0
    5.3595   -4.3329    1.5538 H   0  0  0  0  0  0  0  0  0  0  0  0
    2.6660   -5.3137    2.1053 H   0  0  0  0  0  0  0  0  0  0  0  0
    2.2330   -3.9507    3.0361 H   0  0  0  0  0  0  0  0  0  0  0  0
    1.0024   -3.0029    0.9906 H   0  0  0  0  0  0  0  0  0  0  0  0
    1.4062   -4.5187    0.1849 H   0  0  0  0  0  0  0  0  0  0  0  0
   -1.3541   -3.1880    1.3448 H   0  0  0  0  0  0  0  0  0  0  0  0
   -0.9458   -4.1345   -0.1023 H   0  0  0  0  0  0  0  0  0  0  0  0
   -3.2668   -3.3880    0.1544 H   0  0  0  0  0  0  0  0  0  0  0  0
   -3.5882   -4.9809   -0.5023 H   0  0  0  0  0  0  0  0  0  0  0  0
   -5.1753   -5.4932    1.1964 H   0  0  0  0  0  0  0  0  0  0  0  0
   -4.4477   -4.3646    2.3219 H   0  0  0  0  0  0  0  0  0  0  0  0
   -7.3659   -3.6430    1.9864 H   0  0  0  0  0  0  0  0  0  0  0  0
   -5.9342   -3.0723    2.8662 H   0  0  0  0  0  0  0  0  0  0  0  0
   -7.7798   -1.3214    3.4745 H   0  0  0  0  0  0  0  0  0  0  0  0
   -6.0356   -0.9582    3.4155 H   0  0  0  0  0  0  0  0  0  0  0  0
   -8.1652    0.5839    1.8707 H   0  0  0  0  0  0  0  0  0  0  0  0
   -7.4846    1.1115    3.4330 H   0  0  0  0  0  0  0  0  0  0  0  0
   -7.5123    2.0158    0.5880 H   0  0  0  0  0  0  0  0  0  0  0  0
   -6.3551    3.0846    1.3697 H   0  0  0  0  0  0  0  0  0  0  0  0
   -5.3382    3.3486   -1.6423 H   0  0  0  0  0  0  0  0  0  0  0  0
   -5.1693    3.9253    0.0104 H   0  0  0  0  0  0  0  0  0  0  0  0
   -3.2812    2.0356   -1.4672 H   0  0  0  0  0  0  0  0  0  0  0  0
   -3.0056    3.7418   -1.0525 H   0  0  0  0  0  0  0  0  0  0  0  0
   -1.1204    1.6821    1.0924 H   0  0  0  0  0  0  0  0  0  0  0  0
   -1.0998    2.4188   -0.4831 H   0  0  0  0  0  0  0  0  0  0  0  0
   -1.4525    3.7196    3.2625 H   0  0  0  0  0  0  0  0  0  0  0  0
   -1.7541    5.5486    3.9686 H   0  0  0  0  0  0  0  0  0  0  0  0
   -0.5297    7.3508    2.8584 H   0  0  0  0  0  0  0  0  0  0  0  0
   -1.3407    7.8652    4.3427 H   0  0  0  0  0  0  0  0  0  0  0  0
    0.6484    7.8527    5.3629 H   0  0  0  0  0  0  0  0  0  0  0  0
    0.2796    5.8294    6.2196 H   0  0  0  0  0  0  0  0  0  0  0  0
   -1.8902    5.7434    7.3058 H   0  0  0  0  0  0  0  0  0  0  0  0
   -1.8286    3.6288    5.8579 H   0  0  0  0  0  0  0  0  0  0  0  0
   -0.0556    4.2906    7.9559 H   0  0  0  0  0  0  0  0  0  0  0  0
    0.2197    2.1666    6.3312 H   0  0  0  0  0  0  0  0  0  0  0  0
    1.8811    3.2292    6.7494 H   0  0  0  0  0  0  0  0  0  0  0  0
    1.0443    2.1781    3.8840 H   0  0  0  0  0  0  0  0  0  0  0  0
   -0.6006    0.8738    4.8489 H   0  0  0  0  0  0  0  0  0  0  0  0
  1  2  1  0  0  0  0
  1143  1  0  0  0  0
  1144  1  0  0  0  0
  2  3  1  0  0  0  0
  2  5  1  0  0  0  0
  2  7  1  0  0  0  0
  3  4  1  0  0  0  0
  3145  1  0  0  0  0
  3146  1  0  0  0  0
  4147  1  0  0  0  0
  5  6  1  0  0  0  0
  5148  1  0  0  0  0
  5149  1  0  0  0  0
  6150  1  0  0  0  0
  7  8  1  0  0  0  0
  7151  1  0  0  0  0
  7152  1  0  0  0  0
  8  9  1  0  0  0  0
  9 10  1  0  0  0  0
  9153  1  0  0  0  0
  9154  1  0  0  0  0
 10 11  1  0  0  0  0
 10155  1  0  0  0  0
 10156  1  0  0  0  0
 11 12  1  0  0  0  0
 12 13  1  0  0  0  0
 12157  1  0  0  0  0
 12158  1  0  0  0  0
 13 14  1  0  0  0  0
 14 15  1  0  0  0  0
 14159  1  0  0  0  0
 14160  1  0  0  0  0
 15 16  1  0  0  0  0
 15161  1  0  0  0  0
 15162  1  0  0  0  0
 16 17  1  0  0  0  0
 17 18  1  0  0  0  0
 17163  1  0  0  0  0
 17164  1  0  0  0  0
 18 19  1  0  0  0  0
 19 20  1  0  0  0  0
 19165  1  0  0  0  0
 19166  1  0  0  0  0
 20 21  1  0  0  0  0
 20167  1  0  0  0  0
 20168  1  0  0  0  0
 21 22  1  0  0  0  0
 22 23  1  0  0  0  0
 22169  1  0  0  0  0
 22170  1  0  0  0  0
 23 24  1  0  0  0  0
 24 25  1  0  0  0  0
 24171  1  0  0  0  0
 24172  1  0  0  0  0
 25 26  1  0  0  0  0
 25173  1  0  0  0  0
 25174  1  0  0  0  0
 26 27  1  0  0  0  0
 27 28  1  0  0  0  0
 27175  1  0  0  0  0
 27176  1  0  0  0  0
 28 29  1  0  0  0  0
 29 30  1  0  0  0  0
 29177  1  0  0  0  0
 29178  1  0  0  0  0
 30 31  1  0  0  0  0
 30179  1  0  0  0  0
 30180  1  0  0  0  0
 31 32  1  0  0  0  0
 32 33  1  0  0  0  0
 32181  1  0  0  0  0
 32182  1  0  0  0  0
 33 34  1  0  0  0  0
 34 35  1  0  0  0  0
 34183  1  0  0  0  0
 34184  1  0  0  0  0
 35 36  1  0  0  0  0
 35185  1  0  0  0  0
 35186  1  0  0  0  0
 36 37  1  0  0  0  0
 37 38  1  0  0  0  0
 37187  1  0  0  0  0
 37188  1  0  0  0  0
 38 39  1  0  0  0  0
 39 40  1  0  0  0  0
 39189  1  0  0  0  0
 39190  1  0  0  0  0
 40 41  1  0  0  0  0
 40191  1  0  0  0  0
 40192  1  0  0  0  0
 41 42  1  0  0  0  0
 42 43  1  0  0  0  0
 42193  1  0  0  0  0
 42194  1  0  0  0  0
 43 44  1  0  0  0  0
 44 45  1  0  0  0  0
 44195  1  0  0  0  0
 44196  1  0  0  0  0
 45 46  1  0  0  0  0
 45197  1  0  0  0  0
 45198  1  0  0  0  0
 46 47  1  0  0  0  0
 47 48  1  0  0  0  0
 47199  1  0  0  0  0
 47200  1  0  0  0  0
 48 49  1  0  0  0  0
 49 50  1  0  0  0  0
 49201  1  0  0  0  0
 49202  1  0  0  0  0
 50 51  1  0  0  0  0
 50203  1  0  0  0  0
 50204  1  0  0  0  0
 51 52  1  0  0  0  0
 52 53  1  0  0  0  0
 52205  1  0  0  0  0
 52206  1  0  0  0  0
 53 54  1  0  0  0  0
 54 55  1  0  0  0  0
 54207  1  0  0  0  0
 54208  1  0  0  0  0
 55 56  1  0  0  0  0
 55209  1  0  0  0  0
 55210  1  0  0  0  0
 56 57  1  0  0  0  0
 57 58  1  0  0  0  0
 57211  1  0  0  0  0
 57212  1  0  0  0  0
 58 59  1  0  0  0  0
 59 60  1  0  0  0  0
 59213  1  0  0  0  0
 59214  1  0  0  0  0
 60 61  1  0  0  0  0
 60215  1  0  0  0  0
 60216  1  0  0  0  0
 61 62  1  0  0  0  0
 62 63  1  0  0  0  0
 62217  1  0  0  0  0
 62218  1  0  0  0  0
 63 64  1  0  0  0  0
 64 65  1  0  0  0  0
 64219  1  0  0  0  0
 64220  1  0  0  0  0
 65 66  1  0  0  0  0
 65221  1  0  0  0  0
 65222  1  0  0  0  0
 66 67  1  0  0  0  0
 67 68  1  0  0  0  0
 67223  1  0  0  0  0
 67224  1  0  0  0  0
 68 69  1  0  0  0  0
 69 70  1  0  0  0  0
 69225  1  0  0  0  0
 69226  1  0  0  0  0
 70 71  1  0  0  0  0
 70227  1  0  0  0  0
 70228  1  0  0  0  0
 71 72  1  0  0  0  0
 72 73  1  0  0  0  0
 72229  1  0  0  0  0
 72230  1  0  0  0  0
 73 74  1  0  0  0  0
 74 75  1  0  0  0  0
 74231  1  0  0  0  0
 74232  1  0  0  0  0
 75 76  1  0  0  0  0
 75233  1  0  0  0  0
 75234  1  0  0  0  0
 76 77  1  0  0  0  0
 77 78  1  0  0  0  0
 77235  1  0  0  0  0
 77236  1  0  0  0  0
 78 79  1  0  0  0  0
 79 80  1  0  0  0  0
 79237  1  0  0  0  0
 79238  1  0  0  0  0
 80 81  1  0  0  0  0
 80239  1  0  0  0  0
 80240  1  0  0  0  0
 81 82  1  0  0  0  0
 82 83  1  0  0  0  0
 82241  1  0  0  0  0
 82242  1  0  0  0  0
 83 84  1  0  0  0  0
 84 85  1  0  0  0  0
 84243  1  0  0  0  0
 84244  1  0  0  0  0
 85 86  1  0  0  0  0
 85245  1  0  0  0  0
 85246  1  0  0  0  0
 86 87  1  0  0  0  0
 87 88  1  0  0  0  0
 87247  1  0  0  0  0
 87248  1  0  0  0  0
 88 89  1  0  0  0  0
 89 90  1  0  0  0  0
 89249  1  0  0  0  0
 89250  1  0  0  0  0
 90 91  1  0  0  0  0
 90251  1  0  0  0  0
 90252  1  0  0  0  0
 91 92  1  0  0  0  0
 92 93  1  0  0  0  0
 92253  1  0  0  0  0
 92254  1  0  0  0  0
 93 94  1  0  0  0  0
 94 95  1  0  0  0  0
 94255  1  0  0  0  0
 94256  1  0  0  0  0
 95 96  1  0  0  0  0
 95257  1  0  0  0  0
 95258  1  0  0  0  0
 96 97  1  0  0  0  0
 97 98  1  0  0  0  0
 97259  1  0  0  0  0
 97260  1  0  0  0  0
 98 99  1  0  0  0  0
 99100  1  0  0  0  0
 99261  1  0  0  0  0
 99262  1  0  0  0  0
100101  1  0  0  0  0
100263  1  0  0  0  0
100264  1  0  0  0  0
101102  1  0  0  0  0
102103  1  0  0  0  0
102265  1  0  0  0  0
102266  1  0  0  0  0
103104  1  0  0  0  0
104105  1  0  0  0  0
104267  1  0  0  0  0
104268  1  0  0  0  0
105106  1  0  0  0  0
105269  1  0  0  0  0
105270  1  0  0  0  0
106107  1  0  0  0  0
107108  1  0  0  0  0
107271  1  0  0  0  0
107272  1  0  0  0  0
108109  1  0  0  0  0
109110  1  0  0  0  0
109273  1  0  0  0  0
109274  1  0  0  0  0
110111  1  0  0  0  0
110275  1  0  0  0  0
110276  1  0  0  0  0
111112  1  0  0  0  0
112113  1  0  0  0  0
112277  1  0  0  0  0
112278  1  0  0  0  0
113114  1  0  0  0  0
114115  1  0  0  0  0
114279  1  0  0  0  0
114280  1  0  0  0  0
115116  1  0  0  0  0
115281  1  0  0  0  0
115282  1  0  0  0  0
116117  1  0  0  0  0
117118  1  0  0  0  0
117283  1  0  0  0  0
117284  1  0  0  0  0
118119  1  0  0  0  0
119120  1  0  0  0  0
119285  1  0  0  0  0
119286  1  0  0  0  0
120121  1  0  0  0  0
120287  1  0  0  0  0
120288  1  0  0  0  0
121122  1  0  0  0  0
122123  1  0  0  0  0
122289  1  0  0  0  0
122290  1  0  0  0  0
123124  1  0  0  0  0
124125  1  0  0  0  0
124291  1  0  0  0  0
124292  1  0  0  0  0
125126  1  0  0  0  0
125293  1  0  0  0  0
125294  1  0  0  0  0
126127  1  0  0  0  0
127128  1  0  0  0  0
127295  1  0  0  0  0
127296  1  0  0  0  0
128129  1  0  0  0  0
129130  1  0  0  0  0
130131  1  0  0  0  0
130141  1  1  0  0  0
130297  1  0  0  0  0
131132  1  0  0  0  0
132133  1  0  0  0  0
132135  1  1  0  0  0
132298  1  0  0  0  0
133134  1  0  0  0  0
133299  1  0  0  0  0
133300  1  0  0  0  0
134301  1  0  0  0  0
135136  1  0  0  0  0
135137  1  1  0  0  0
135302  1  0  0  0  0
136303  1  0  0  0  0
137138  1  0  0  0  0
137139  1  6  0  0  0
137304  1  0  0  0  0
138305  1  0  0  0  0
139140  1  0  0  0  0
139141  1  6  0  0  0
139306  1  0  0  0  0
140307  1  0  0  0  0
141142  1  0  0  0  0
141308  1  6  0  0  0
142309  1  0  0  0  0
M  END
$$$$
