
     RDKit          3D

 12 12  0  0  0  0  0  0  0  0999 V2000
  585.4843  -32.5538  203.5484 O   0  0  0  0  0  0  0  0  0  0  0  0
  586.4871  -31.7151  203.9697 C   0  0  0  0  0  0  0  0  0  0  0  0
  585.9384  -30.3436  204.2761 C   0  0  1  0  0  0  0  0  0  0  0  0
  584.9319  -29.9811  203.4099 O   0  0  0  0  0  0  0  0  0  0  0  0
  584.7061  -28.6339  203.4730 C   0  0  0  0  0  0  0  0  0  0  0  0
  585.7311  -27.9627  202.7773 O   0  0  0  0  0  0  0  0  0  0  0  0
  584.5150  -28.0619  204.8205 C   0  0  2  0  0  0  0  0  0  0  0  0
  585.0826  -26.7665  204.8243 O   0  0  0  0  0  0  0  0  0  0  0  0
  585.0974  -28.8113  205.9529 C   0  0  1  0  0  0  0  0  0  0  0  0
  584.3118  -28.7416  207.1053 O   0  0  0  0  0  0  0  0  0  0  0  0
  585.3544  -30.2713  205.6732 C   0  0  2  0  0  0  0  0  0  0  0  0
  586.1930  -30.8197  206.6269 O   0  0  0  0  0  0  0  0  0  0  0  0
  1  2  1  0
  3  2  1  6
  3  4  1  0
  4  5  1  0
  5  6  1  0
  5  7  1  0
  7  8  1  6
  7  9  1  0
  9 10  1  1
  9 11  1  0
 11 12  1  1
 11  3  1  0
M  END
$$$$
