lig
 OpenBabel01222603183D

889891  0  0  1  0  0  0  0  0999 V2000
  -53.3100 -126.4146    0.0000 H   0  0  0  0  0  0  0  0  0  0  0  0
  -53.1264 -127.2190    0.0000 O   0  0  0  0  0  0  0  0  0  0  0  0
  -52.3381 -127.4621    0.0000 C   0  0  0  0  0  0  0  0  0  0  0  0
  -51.5458 -127.2321    0.0000 H   0  0  0  0  0  0  0  0  0  0  0  0
  -52.0495 -126.6893    0.0000 H   0  0  0  0  0  0  0  0  0  0  0  0
  -52.1545 -128.2665    0.0000 C   0  0  1  0  0  0  0  0  0  0  0  0
  -52.9332 -127.9940    0.0000 H   0  0  0  0  0  0  0  0  0  0  0  0
  -51.3502 -128.4500    0.0000 O   0  0  0  0  0  0  0  0  0  0  0  0
  -50.9922 -129.1933    0.0000 C   0  0  1  0  0  0  0  0  0  0  0  0
  -50.5533 -129.8919    0.0000 H   0  0  0  0  0  0  0  0  0  0  0  0
  -50.1672 -129.1933    0.0000 O   0  0  0  0  0  0  0  0  0  0  0  0
  -49.7547 -128.4789    0.0000 O   0  0  0  0  0  0  0  0  0  0  0  0
  -48.9297 -128.4789    0.0000 C   0  0  0  0  0  0  0  0  0  0  0  0
  -48.8818 -129.3025    0.0000 H   0  0  0  0  0  0  0  0  0  0  0  0
  -48.2405 -128.9322    0.0000 H   0  0  0  0  0  0  0  0  0  0  0  0
  -48.5172 -127.7644    0.0000 O   0  0  0  0  0  0  0  0  0  0  0  0
  -47.6922 -127.7644    0.0000 C   0  0  0  0  0  0  0  0  0  0  0  0
  -47.6443 -128.5880    0.0000 H   0  0  0  0  0  0  0  0  0  0  0  0
  -47.0030 -128.2178    0.0000 H   0  0  0  0  0  0  0  0  0  0  0  0
  -47.2797 -127.0499    0.0000 C   0  0  0  0  0  0  0  0  0  0  0  0
  -47.3277 -126.2263    0.0000 H   0  0  0  0  0  0  0  0  0  0  0  0
  -47.9690 -126.5966    0.0000 H   0  0  0  0  0  0  0  0  0  0  0  0
  -46.4547 -127.0499    0.0000 O   0  0  0  0  0  0  0  0  0  0  0  0
  -46.0422 -126.3355    0.0000 C   0  0  0  0  0  0  0  0  0  0  0  0
  -46.0902 -125.5119    0.0000 H   0  0  0  0  0  0  0  0  0  0  0  0
  -46.7315 -125.8821    0.0000 H   0  0  0  0  0  0  0  0  0  0  0  0
  -45.2172 -126.3355    0.0000 O   0  0  0  0  0  0  0  0  0  0  0  0
  -44.8047 -125.6210    0.0000 C   0  0  0  0  0  0  0  0  0  0  0  0
  -44.8527 -124.7974    0.0000 H   0  0  0  0  0  0  0  0  0  0  0  0
  -45.4940 -125.1676    0.0000 H   0  0  0  0  0  0  0  0  0  0  0  0
  -43.9797 -125.6210    0.0000 C   0  0  0  0  0  0  0  0  0  0  0  0
  -43.9318 -126.4446    0.0000 H   0  0  0  0  0  0  0  0  0  0  0  0
  -43.2905 -126.0743    0.0000 H   0  0  0  0  0  0  0  0  0  0  0  0
  -43.5672 -124.9065    0.0000 O   0  0  0  0  0  0  0  0  0  0  0  0
  -42.7422 -124.9065    0.0000 C   0  0  0  0  0  0  0  0  0  0  0  0
  -42.6943 -125.7301    0.0000 H   0  0  0  0  0  0  0  0  0  0  0  0
  -42.0530 -125.3598    0.0000 H   0  0  0  0  0  0  0  0  0  0  0  0
  -42.3297 -124.1920    0.0000 O   0  0  0  0  0  0  0  0  0  0  0  0
  -41.5047 -124.1920    0.0000 C   0  0  0  0  0  0  0  0  0  0  0  0
  -41.4568 -125.0156    0.0000 H   0  0  0  0  0  0  0  0  0  0  0  0
  -40.8155 -124.6454    0.0000 H   0  0  0  0  0  0  0  0  0  0  0  0
  -41.0922 -123.4775    0.0000 C   0  0  0  0  0  0  0  0  0  0  0  0
  -41.1402 -122.6539    0.0000 H   0  0  0  0  0  0  0  0  0  0  0  0
  -41.7815 -123.0242    0.0000 H   0  0  0  0  0  0  0  0  0  0  0  0
  -40.2672 -123.4775    0.0000 O   0  0  0  0  0  0  0  0  0  0  0  0
  -39.8547 -122.7631    0.0000 C   0  0  0  0  0  0  0  0  0  0  0  0
  -39.9027 -121.9395    0.0000 H   0  0  0  0  0  0  0  0  0  0  0  0
  -40.5440 -122.3097    0.0000 H   0  0  0  0  0  0  0  0  0  0  0  0
  -39.0297 -122.7631    0.0000 O   0  0  0  0  0  0  0  0  0  0  0  0
  -38.6172 -122.0486    0.0000 C   0  0  0  0  0  0  0  0  0  0  0  0
  -38.6652 -121.2250    0.0000 H   0  0  0  0  0  0  0  0  0  0  0  0
  -39.3065 -121.5953    0.0000 H   0  0  0  0  0  0  0  0  0  0  0  0
  -37.7922 -122.0486    0.0000 C   0  0  0  0  0  0  0  0  0  0  0  0
  -37.7443 -122.8722    0.0000 H   0  0  0  0  0  0  0  0  0  0  0  0
  -37.1030 -122.5020    0.0000 H   0  0  0  0  0  0  0  0  0  0  0  0
  -37.3797 -121.3341    0.0000 O   0  0  0  0  0  0  0  0  0  0  0  0
  -36.5547 -121.3341    0.0000 C   0  0  0  0  0  0  0  0  0  0  0  0
  -36.5068 -122.1578    0.0000 H   0  0  0  0  0  0  0  0  0  0  0  0
  -35.8655 -121.7875    0.0000 H   0  0  0  0  0  0  0  0  0  0  0  0
  -36.1422 -120.6197    0.0000 O   0  0  0  0  0  0  0  0  0  0  0  0
  -35.3172 -120.6197    0.0000 C   0  0  0  0  0  0  0  0  0  0  0  0
  -35.2693 -121.4433    0.0000 H   0  0  0  0  0  0  0  0  0  0  0  0
  -34.6280 -121.0730    0.0000 H   0  0  0  0  0  0  0  0  0  0  0  0
  -34.9047 -119.9052    0.0000 C   0  0  0  0  0  0  0  0  0  0  0  0
  -34.9527 -119.0816    0.0000 H   0  0  0  0  0  0  0  0  0  0  0  0
  -35.5940 -119.4519    0.0000 H   0  0  0  0  0  0  0  0  0  0  0  0
  -34.0797 -119.9052    0.0000 O   0  0  0  0  0  0  0  0  0  0  0  0
  -33.6672 -119.1908    0.0000 C   0  0  0  0  0  0  0  0  0  0  0  0
  -33.7152 -118.3671    0.0000 H   0  0  0  0  0  0  0  0  0  0  0  0
  -34.3565 -118.7374    0.0000 H   0  0  0  0  0  0  0  0  0  0  0  0
  -32.8422 -119.1908    0.0000 O   0  0  0  0  0  0  0  0  0  0  0  0
  -32.4297 -118.4763    0.0000 C   0  0  0  0  0  0  0  0  0  0  0  0
  -32.4777 -117.6527    0.0000 H   0  0  0  0  0  0  0  0  0  0  0  0
  -33.1190 -118.0229    0.0000 H   0  0  0  0  0  0  0  0  0  0  0  0
  -31.6047 -118.4763    0.0000 C   0  0  0  0  0  0  0  0  0  0  0  0
  -31.5568 -119.2999    0.0000 H   0  0  0  0  0  0  0  0  0  0  0  0
  -30.9155 -118.9296    0.0000 H   0  0  0  0  0  0  0  0  0  0  0  0
  -31.1922 -117.7618    0.0000 O   0  0  0  0  0  0  0  0  0  0  0  0
  -30.3672 -117.7618    0.0000 C   0  0  0  0  0  0  0  0  0  0  0  0
  -30.3193 -118.5854    0.0000 H   0  0  0  0  0  0  0  0  0  0  0  0
  -29.6780 -118.2151    0.0000 H   0  0  0  0  0  0  0  0  0  0  0  0
  -29.9547 -117.0473    0.0000 O   0  0  0  0  0  0  0  0  0  0  0  0
  -29.1297 -117.0473    0.0000 C   0  0  0  0  0  0  0  0  0  0  0  0
  -29.0818 -117.8709    0.0000 H   0  0  0  0  0  0  0  0  0  0  0  0
  -28.4405 -117.5007    0.0000 H   0  0  0  0  0  0  0  0  0  0  0  0
  -28.7172 -116.3328    0.0000 C   0  0  0  0  0  0  0  0  0  0  0  0
  -28.7652 -115.5093    0.0000 H   0  0  0  0  0  0  0  0  0  0  0  0
  -29.4065 -115.8795    0.0000 H   0  0  0  0  0  0  0  0  0  0  0  0
  -27.8922 -116.3328    0.0000 O   0  0  0  0  0  0  0  0  0  0  0  0
  -27.4797 -115.6184    0.0000 C   0  0  0  0  0  0  0  0  0  0  0  0
  -27.5277 -114.7948    0.0000 H   0  0  0  0  0  0  0  0  0  0  0  0
  -28.1690 -115.1650    0.0000 H   0  0  0  0  0  0  0  0  0  0  0  0
  -26.6547 -115.6184    0.0000 O   0  0  0  0  0  0  0  0  0  0  0  0
  -26.2422 -114.9039    0.0000 C   0  0  0  0  0  0  0  0  0  0  0  0
  -26.2902 -114.0803    0.0000 H   0  0  0  0  0  0  0  0  0  0  0  0
  -26.9315 -114.4505    0.0000 H   0  0  0  0  0  0  0  0  0  0  0  0
  -25.4172 -114.9039    0.0000 C   0  0  0  0  0  0  0  0  0  0  0  0
  -25.3693 -115.7275    0.0000 H   0  0  0  0  0  0  0  0  0  0  0  0
  -24.7280 -115.3572    0.0000 H   0  0  0  0  0  0  0  0  0  0  0  0
  -25.0047 -114.1894    0.0000 O   0  0  0  0  0  0  0  0  0  0  0  0
  -24.1797 -114.1894    0.0000 C   0  0  0  0  0  0  0  0  0  0  0  0
  -24.1318 -115.0130    0.0000 H   0  0  0  0  0  0  0  0  0  0  0  0
  -23.4905 -114.6428    0.0000 H   0  0  0  0  0  0  0  0  0  0  0  0
  -23.7672 -113.4750    0.0000 O   0  0  0  0  0  0  0  0  0  0  0  0
  -22.9422 -113.4750    0.0000 C   0  0  0  0  0  0  0  0  0  0  0  0
  -22.8943 -114.2986    0.0000 H   0  0  0  0  0  0  0  0  0  0  0  0
  -22.2530 -113.9283    0.0000 H   0  0  0  0  0  0  0  0  0  0  0  0
  -22.5297 -112.7605    0.0000 C   0  0  0  0  0  0  0  0  0  0  0  0
  -22.5777 -111.9369    0.0000 H   0  0  0  0  0  0  0  0  0  0  0  0
  -23.2190 -112.3071    0.0000 H   0  0  0  0  0  0  0  0  0  0  0  0
  -21.7047 -112.7605    0.0000 O   0  0  0  0  0  0  0  0  0  0  0  0
  -21.2922 -112.0460    0.0000 C   0  0  0  0  0  0  0  0  0  0  0  0
  -21.3402 -111.2224    0.0000 H   0  0  0  0  0  0  0  0  0  0  0  0
  -21.9815 -111.5927    0.0000 H   0  0  0  0  0  0  0  0  0  0  0  0
  -20.4672 -112.0460    0.0000 O   0  0  0  0  0  0  0  0  0  0  0  0
  -20.0547 -111.3316    0.0000 C   0  0  0  0  0  0  0  0  0  0  0  0
  -20.1027 -110.5080    0.0000 H   0  0  0  0  0  0  0  0  0  0  0  0
  -20.7440 -110.8782    0.0000 H   0  0  0  0  0  0  0  0  0  0  0  0
  -19.2297 -111.3316    0.0000 C   0  0  0  0  0  0  0  0  0  0  0  0
  -19.1818 -112.1552    0.0000 H   0  0  0  0  0  0  0  0  0  0  0  0
  -18.5405 -111.7849    0.0000 H   0  0  0  0  0  0  0  0  0  0  0  0
  -18.8172 -110.6171    0.0000 O   0  0  0  0  0  0  0  0  0  0  0  0
  -17.9922 -110.6171    0.0000 C   0  0  0  0  0  0  0  0  0  0  0  0
  -17.9443 -111.4407    0.0000 H   0  0  0  0  0  0  0  0  0  0  0  0
  -17.3030 -111.0705    0.0000 H   0  0  0  0  0  0  0  0  0  0  0  0
  -17.5797 -109.9026    0.0000 O   0  0  0  0  0  0  0  0  0  0  0  0
  -16.7547 -109.9026    0.0000 C   0  0  0  0  0  0  0  0  0  0  0  0
  -16.7068 -110.7262    0.0000 H   0  0  0  0  0  0  0  0  0  0  0  0
  -16.0655 -110.3560    0.0000 H   0  0  0  0  0  0  0  0  0  0  0  0
  -16.3422 -109.1882    0.0000 C   0  0  0  0  0  0  0  0  0  0  0  0
  -16.3902 -108.3646    0.0000 H   0  0  0  0  0  0  0  0  0  0  0  0
  -17.0315 -108.7348    0.0000 H   0  0  0  0  0  0  0  0  0  0  0  0
  -15.5172 -109.1882    0.0000 O   0  0  0  0  0  0  0  0  0  0  0  0
  -15.1047 -108.4737    0.0000 C   0  0  0  0  0  0  0  0  0  0  0  0
  -15.1527 -107.6501    0.0000 H   0  0  0  0  0  0  0  0  0  0  0  0
  -15.7940 -108.0203    0.0000 H   0  0  0  0  0  0  0  0  0  0  0  0
  -14.2797 -108.4737    0.0000 O   0  0  0  0  0  0  0  0  0  0  0  0
  -13.8672 -107.7592    0.0000 C   0  0  0  0  0  0  0  0  0  0  0  0
  -13.9152 -106.9356    0.0000 H   0  0  0  0  0  0  0  0  0  0  0  0
  -14.5565 -107.3059    0.0000 H   0  0  0  0  0  0  0  0  0  0  0  0
  -13.0422 -107.7592    0.0000 C   0  0  0  0  0  0  0  0  0  0  0  0
  -12.9943 -108.5828    0.0000 H   0  0  0  0  0  0  0  0  0  0  0  0
  -12.3530 -108.2125    0.0000 H   0  0  0  0  0  0  0  0  0  0  0  0
  -12.6297 -107.0447    0.0000 O   0  0  0  0  0  0  0  0  0  0  0  0
  -11.8047 -107.0447    0.0000 C   0  0  0  0  0  0  0  0  0  0  0  0
  -11.7568 -107.8683    0.0000 H   0  0  0  0  0  0  0  0  0  0  0  0
  -11.1155 -107.4981    0.0000 H   0  0  0  0  0  0  0  0  0  0  0  0
  -11.3922 -106.3302    0.0000 O   0  0  0  0  0  0  0  0  0  0  0  0
  -10.5672 -106.3302    0.0000 C   0  0  0  0  0  0  0  0  0  0  0  0
  -10.5193 -107.1538    0.0000 H   0  0  0  0  0  0  0  0  0  0  0  0
   -9.8780 -106.7836    0.0000 H   0  0  0  0  0  0  0  0  0  0  0  0
  -10.1547 -105.6158    0.0000 C   0  0  0  0  0  0  0  0  0  0  0  0
  -10.2027 -104.7922    0.0000 H   0  0  0  0  0  0  0  0  0  0  0  0
  -10.8440 -105.1624    0.0000 H   0  0  0  0  0  0  0  0  0  0  0  0
   -9.3297 -105.6158    0.0000 O   0  0  0  0  0  0  0  0  0  0  0  0
   -8.9172 -104.9013    0.0000 C   0  0  0  0  0  0  0  0  0  0  0  0
   -8.9652 -104.0777    0.0000 H   0  0  0  0  0  0  0  0  0  0  0  0
   -9.6065 -104.4480    0.0000 H   0  0  0  0  0  0  0  0  0  0  0  0
   -8.0922 -104.9013    0.0000 O   0  0  0  0  0  0  0  0  0  0  0  0
   -7.6797 -104.1868    0.0000 C   0  0  0  0  0  0  0  0  0  0  0  0
   -7.7277 -103.3632    0.0000 H   0  0  0  0  0  0  0  0  0  0  0  0
   -8.3690 -103.7335    0.0000 H   0  0  0  0  0  0  0  0  0  0  0  0
   -6.8547 -104.1868    0.0000 C   0  0  0  0  0  0  0  0  0  0  0  0
   -6.8068 -105.0105    0.0000 H   0  0  0  0  0  0  0  0  0  0  0  0
   -6.1655 -104.6402    0.0000 H   0  0  0  0  0  0  0  0  0  0  0  0
   -6.4422 -103.4724    0.0000 O   0  0  0  0  0  0  0  0  0  0  0  0
   -5.6172 -103.4724    0.0000 C   0  0  0  0  0  0  0  0  0  0  0  0
   -5.5693 -104.2960    0.0000 H   0  0  0  0  0  0  0  0  0  0  0  0
   -4.9280 -103.9257    0.0000 H   0  0  0  0  0  0  0  0  0  0  0  0
   -5.2047 -102.7579    0.0000 O   0  0  0  0  0  0  0  0  0  0  0  0
   -4.3797 -102.7579    0.0000 C   0  0  0  0  0  0  0  0  0  0  0  0
   -4.3318 -103.5815    0.0000 H   0  0  0  0  0  0  0  0  0  0  0  0
   -3.6905 -103.2113    0.0000 H   0  0  0  0  0  0  0  0  0  0  0  0
   -3.9672 -102.0435    0.0000 C   0  0  0  0  0  0  0  0  0  0  0  0
   -4.0152 -101.2198    0.0000 H   0  0  0  0  0  0  0  0  0  0  0  0
   -4.6565 -101.5901    0.0000 H   0  0  0  0  0  0  0  0  0  0  0  0
   -3.1422 -102.0435    0.0000 O   0  0  0  0  0  0  0  0  0  0  0  0
   -2.7297 -101.3290    0.0000 C   0  0  0  0  0  0  0  0  0  0  0  0
   -2.7777 -100.5054    0.0000 H   0  0  0  0  0  0  0  0  0  0  0  0
   -3.4190 -100.8756    0.0000 H   0  0  0  0  0  0  0  0  0  0  0  0
   -1.9047 -101.3290    0.0000 O   0  0  0  0  0  0  0  0  0  0  0  0
   -1.4922 -100.6145    0.0000 C   0  0  0  0  0  0  0  0  0  0  0  0
   -1.5402  -99.7909    0.0000 H   0  0  0  0  0  0  0  0  0  0  0  0
   -2.1815 -100.1612    0.0000 H   0  0  0  0  0  0  0  0  0  0  0  0
   -0.6672 -100.6145    0.0000 C   0  0  0  0  0  0  0  0  0  0  0  0
   -0.6193 -101.4381    0.0000 H   0  0  0  0  0  0  0  0  0  0  0  0
    0.0219 -101.0678    0.0000 H   0  0  0  0  0  0  0  0  0  0  0  0
   -0.2547  -99.9000    0.0000 O   0  0  0  0  0  0  0  0  0  0  0  0
    0.5702  -99.9000    0.0000 C   0  0  0  0  0  0  0  0  0  0  0  0
    0.6181 -100.7236    0.0000 H   0  0  0  0  0  0  0  0  0  0  0  0
    1.2594 -100.3534    0.0000 H   0  0  0  0  0  0  0  0  0  0  0  0
    0.9827  -99.1855    0.0000 O   0  0  0  0  0  0  0  0  0  0  0  0
    1.8077  -99.1855    0.0000 C   0  0  0  0  0  0  0  0  0  0  0  0
    1.8556 -100.0091    0.0000 H   0  0  0  0  0  0  0  0  0  0  0  0
    2.4969  -99.6389    0.0000 H   0  0  0  0  0  0  0  0  0  0  0  0
    2.2202  -98.4711    0.0000 C   0  0  0  0  0  0  0  0  0  0  0  0
    2.1722  -97.6475    0.0000 H   0  0  0  0  0  0  0  0  0  0  0  0
    1.5309  -98.0177    0.0000 H   0  0  0  0  0  0  0  0  0  0  0  0
    3.0452  -98.4711    0.0000 O   0  0  0  0  0  0  0  0  0  0  0  0
    3.4577  -97.7566    0.0000 C   0  0  0  0  0  0  0  0  0  0  0  0
    3.4097  -96.9330    0.0000 H   0  0  0  0  0  0  0  0  0  0  0  0
    2.7684  -97.3032    0.0000 H   0  0  0  0  0  0  0  0  0  0  0  0
    4.2827  -97.7566    0.0000 O   0  0  0  0  0  0  0  0  0  0  0  0
    4.6952  -97.0421    0.0000 C   0  0  0  0  0  0  0  0  0  0  0  0
    4.6472  -96.2185    0.0000 H   0  0  0  0  0  0  0  0  0  0  0  0
    4.0059  -96.5888    0.0000 H   0  0  0  0  0  0  0  0  0  0  0  0
    5.5202  -97.0421    0.0000 C   0  0  0  0  0  0  0  0  0  0  0  0
    5.5681  -97.8657    0.0000 H   0  0  0  0  0  0  0  0  0  0  0  0
    6.2094  -97.4955    0.0000 H   0  0  0  0  0  0  0  0  0  0  0  0
    5.9327  -96.3276    0.0000 O   0  0  0  0  0  0  0  0  0  0  0  0
    6.7577  -96.3276    0.0000 C   0  0  0  0  0  0  0  0  0  0  0  0
    6.8056  -97.1513    0.0000 H   0  0  0  0  0  0  0  0  0  0  0  0
    7.4469  -96.7810    0.0000 H   0  0  0  0  0  0  0  0  0  0  0  0
    7.1702  -95.6132    0.0000 O   0  0  0  0  0  0  0  0  0  0  0  0
    7.9952  -95.6132    0.0000 C   0  0  0  0  0  0  0  0  0  0  0  0
    8.0431  -96.4368    0.0000 H   0  0  0  0  0  0  0  0  0  0  0  0
    8.6844  -96.0665    0.0000 H   0  0  0  0  0  0  0  0  0  0  0  0
    8.4077  -94.8987    0.0000 C   0  0  0  0  0  0  0  0  0  0  0  0
    8.3597  -94.0751    0.0000 H   0  0  0  0  0  0  0  0  0  0  0  0
    7.7184  -94.4454    0.0000 H   0  0  0  0  0  0  0  0  0  0  0  0
    9.2327  -94.8987    0.0000 O   0  0  0  0  0  0  0  0  0  0  0  0
    9.6452  -94.1843    0.0000 C   0  0  0  0  0  0  0  0  0  0  0  0
    9.5972  -93.3606    0.0000 H   0  0  0  0  0  0  0  0  0  0  0  0
    8.9559  -93.7309    0.0000 H   0  0  0  0  0  0  0  0  0  0  0  0
   10.4702  -94.1843    0.0000 O   0  0  0  0  0  0  0  0  0  0  0  0
   10.8827  -93.4698    0.0000 C   0  0  0  0  0  0  0  0  0  0  0  0
   10.8347  -92.6462    0.0000 H   0  0  0  0  0  0  0  0  0  0  0  0
   10.1934  -93.0165    0.0000 H   0  0  0  0  0  0  0  0  0  0  0  0
   11.7077  -93.4698    0.0000 C   0  0  0  0  0  0  0  0  0  0  0  0
   11.7556  -94.2934    0.0000 H   0  0  0  0  0  0  0  0  0  0  0  0
   12.3969  -93.9231    0.0000 H   0  0  0  0  0  0  0  0  0  0  0  0
   12.1202  -92.7553    0.0000 O   0  0  0  0  0  0  0  0  0  0  0  0
   12.9452  -92.7553    0.0000 C   0  0  0  0  0  0  0  0  0  0  0  0
   12.9931  -93.5789    0.0000 H   0  0  0  0  0  0  0  0  0  0  0  0
   13.6344  -93.2087    0.0000 H   0  0  0  0  0  0  0  0  0  0  0  0
   13.3577  -92.0409    0.0000 O   0  0  0  0  0  0  0  0  0  0  0  0
   14.1827  -92.0409    0.0000 C   0  0  0  0  0  0  0  0  0  0  0  0
   14.2306  -92.8644    0.0000 H   0  0  0  0  0  0  0  0  0  0  0  0
   14.8719  -92.4942    0.0000 H   0  0  0  0  0  0  0  0  0  0  0  0
   14.5952  -91.3264    0.0000 C   0  0  0  0  0  0  0  0  0  0  0  0
   14.5472  -90.5028    0.0000 H   0  0  0  0  0  0  0  0  0  0  0  0
   13.9059  -90.8730    0.0000 H   0  0  0  0  0  0  0  0  0  0  0  0
   15.4202  -91.3264    0.0000 O   0  0  0  0  0  0  0  0  0  0  0  0
   15.8327  -90.6119    0.0000 C   0  0  0  0  0  0  0  0  0  0  0  0
   15.7847  -89.7883    0.0000 H   0  0  0  0  0  0  0  0  0  0  0  0
   15.1434  -90.1586    0.0000 H   0  0  0  0  0  0  0  0  0  0  0  0
   16.6577  -90.6119    0.0000 O   0  0  0  0  0  0  0  0  0  0  0  0
   17.0702  -89.8974    0.0000 C   0  0  0  0  0  0  0  0  0  0  0  0
   17.0222  -89.0738    0.0000 H   0  0  0  0  0  0  0  0  0  0  0  0
   16.3809  -89.4441    0.0000 H   0  0  0  0  0  0  0  0  0  0  0  0
   17.8952  -89.8974    0.0000 C   0  0  0  0  0  0  0  0  0  0  0  0
   17.9431  -90.7210    0.0000 H   0  0  0  0  0  0  0  0  0  0  0  0
   18.5844  -90.3508    0.0000 H   0  0  0  0  0  0  0  0  0  0  0  0
   18.3077  -89.1829    0.0000 O   0  0  0  0  0  0  0  0  0  0  0  0
   19.1327  -89.1829    0.0000 C   0  0  0  0  0  0  0  0  0  0  0  0
   19.1806  -90.0065    0.0000 H   0  0  0  0  0  0  0  0  0  0  0  0
   19.8219  -89.6363    0.0000 H   0  0  0  0  0  0  0  0  0  0  0  0
   19.5452  -88.4685    0.0000 O   0  0  0  0  0  0  0  0  0  0  0  0
   20.3702  -88.4685    0.0000 C   0  0  0  0  0  0  0  0  0  0  0  0
   20.4181  -89.2921    0.0000 H   0  0  0  0  0  0  0  0  0  0  0  0
   21.0594  -88.9218    0.0000 H   0  0  0  0  0  0  0  0  0  0  0  0
   20.7827  -87.7540    0.0000 C   0  0  0  0  0  0  0  0  0  0  0  0
   20.7347  -86.9304    0.0000 H   0  0  0  0  0  0  0  0  0  0  0  0
   20.0934  -87.3006    0.0000 H   0  0  0  0  0  0  0  0  0  0  0  0
   21.6077  -87.7540    0.0000 O   0  0  0  0  0  0  0  0  0  0  0  0
   22.0202  -87.0395    0.0000 C   0  0  0  0  0  0  0  0  0  0  0  0
   21.9722  -86.2159    0.0000 H   0  0  0  0  0  0  0  0  0  0  0  0
   21.3309  -86.5862    0.0000 H   0  0  0  0  0  0  0  0  0  0  0  0
   22.8452  -87.0395    0.0000 O   0  0  0  0  0  0  0  0  0  0  0  0
   23.2577  -86.3251    0.0000 C   0  0  0  0  0  0  0  0  0  0  0  0
   23.2097  -85.5015    0.0000 H   0  0  0  0  0  0  0  0  0  0  0  0
   22.5684  -85.8717    0.0000 H   0  0  0  0  0  0  0  0  0  0  0  0
   24.0827  -86.3251    0.0000 C   0  0  0  0  0  0  0  0  0  0  0  0
   24.1306  -87.1487    0.0000 H   0  0  0  0  0  0  0  0  0  0  0  0
   24.7719  -86.7784    0.0000 H   0  0  0  0  0  0  0  0  0  0  0  0
   24.4952  -85.6106    0.0000 O   0  0  0  0  0  0  0  0  0  0  0  0
   25.3202  -85.6106    0.0000 C   0  0  0  0  0  0  0  0  0  0  0  0
   25.3681  -86.4342    0.0000 H   0  0  0  0  0  0  0  0  0  0  0  0
   26.0094  -86.0640    0.0000 H   0  0  0  0  0  0  0  0  0  0  0  0
   25.7327  -84.8961    0.0000 C   0  0  1  0  0  0  0  0  0  0  0  0
   26.4471  -85.3086    0.0000 N   0  0  0  0  0  0  0  0  0  0  0  0
   27.0791  -84.7783    0.0000 H   0  0  0  0  0  0  0  0  0  0  0  0
   26.5904  -84.4962    0.0000 H   0  0  0  0  0  0  0  0  0  0  0  0
   26.1452  -84.1817    0.0000 C   0  0  0  0  0  0  0  0  0  0  0  0
   25.6149  -83.5497    0.0000 H   0  0  0  0  0  0  0  0  0  0  0  0
   25.3327  -84.0384    0.0000 H   0  0  0  0  0  0  0  0  0  0  0  0
   26.9702  -84.1817    0.0000 O   0  0  0  0  0  0  0  0  0  0  0  0
   27.3827  -84.8961    0.0000 C   0  0  0  0  0  0  0  0  0  0  0  0
   28.1199  -85.2664    0.0000 H   0  0  0  0  0  0  0  0  0  0  0  0
   28.1199  -84.5259    0.0000 H   0  0  0  0  0  0  0  0  0  0  0  0
   26.9702  -85.6106    0.0000 C   0  0  0  0  0  0  0  0  0  0  0  0
   26.3868  -86.1940    0.0000 H   0  0  0  0  0  0  0  0  0  0  0  0
   27.7952  -85.6106    0.0000 H   0  0  0  0  0  0  0  0  0  0  0  0
   27.3827  -86.3251    0.0000 O   0  0  0  0  0  0  0  0  0  0  0  0
   26.9702  -87.0395    0.0000 C   0  0  0  0  0  0  0  0  0  0  0  0
   26.2329  -86.6693    0.0000 H   0  0  0  0  0  0  0  0  0  0  0  0
   26.2329  -87.4098    0.0000 H   0  0  0  0  0  0  0  0  0  0  0  0
   27.3827  -87.7540    0.0000 O   0  0  0  0  0  0  0  0  0  0  0  0
   26.9702  -88.4685    0.0000 C   0  0  0  0  0  0  0  0  0  0  0  0
   26.2329  -88.0982    0.0000 H   0  0  0  0  0  0  0  0  0  0  0  0
   26.2329  -88.8387    0.0000 H   0  0  0  0  0  0  0  0  0  0  0  0
   27.3827  -89.1829    0.0000 C   0  0  0  0  0  0  0  0  0  0  0  0
   28.1199  -89.5532    0.0000 H   0  0  0  0  0  0  0  0  0  0  0  0
   28.1199  -88.8127    0.0000 H   0  0  0  0  0  0  0  0  0  0  0  0
   26.9702  -89.8974    0.0000 O   0  0  0  0  0  0  0  0  0  0  0  0
   27.3827  -90.6119    0.0000 C   0  0  0  0  0  0  0  0  0  0  0  0
   28.1199  -90.9821    0.0000 H   0  0  0  0  0  0  0  0  0  0  0  0
   28.1199  -90.2416    0.0000 H   0  0  0  0  0  0  0  0  0  0  0  0
   26.9702  -91.3264    0.0000 O   0  0  0  0  0  0  0  0  0  0  0  0
   27.3827  -92.0409    0.0000 C   0  0  0  0  0  0  0  0  0  0  0  0
   28.1199  -92.4111    0.0000 H   0  0  0  0  0  0  0  0  0  0  0  0
   28.1199  -91.6706    0.0000 H   0  0  0  0  0  0  0  0  0  0  0  0
   26.9702  -92.7553    0.0000 C   0  0  0  0  0  0  0  0  0  0  0  0
   26.2329  -92.3851    0.0000 H   0  0  0  0  0  0  0  0  0  0  0  0
   26.2329  -93.1256    0.0000 H   0  0  0  0  0  0  0  0  0  0  0  0
   27.3827  -93.4698    0.0000 O   0  0  0  0  0  0  0  0  0  0  0  0
   26.9702  -94.1843    0.0000 C   0  0  0  0  0  0  0  0  0  0  0  0
   26.2329  -93.8140    0.0000 H   0  0  0  0  0  0  0  0  0  0  0  0
   26.2329  -94.5545    0.0000 H   0  0  0  0  0  0  0  0  0  0  0  0
   27.3827  -94.8987    0.0000 O   0  0  0  0  0  0  0  0  0  0  0  0
   26.9702  -95.6132    0.0000 C   0  0  0  0  0  0  0  0  0  0  0  0
   26.2329  -95.2429    0.0000 H   0  0  0  0  0  0  0  0  0  0  0  0
   26.2329  -95.9835    0.0000 H   0  0  0  0  0  0  0  0  0  0  0  0
   27.3827  -96.3276    0.0000 C   0  0  0  0  0  0  0  0  0  0  0  0
   28.1199  -96.6979    0.0000 H   0  0  0  0  0  0  0  0  0  0  0  0
   28.1199  -95.9574    0.0000 H   0  0  0  0  0  0  0  0  0  0  0  0
   26.9702  -97.0421    0.0000 O   0  0  0  0  0  0  0  0  0  0  0  0
   27.3827  -97.7566    0.0000 C   0  0  0  0  0  0  0  0  0  0  0  0
   28.1199  -98.1268    0.0000 H   0  0  0  0  0  0  0  0  0  0  0  0
   28.1199  -97.3863    0.0000 H   0  0  0  0  0  0  0  0  0  0  0  0
   26.9702  -98.4711    0.0000 O   0  0  0  0  0  0  0  0  0  0  0  0
   27.3827  -99.1855    0.0000 C   0  0  0  0  0  0  0  0  0  0  0  0
   28.1199  -99.5558    0.0000 H   0  0  0  0  0  0  0  0  0  0  0  0
   28.1199  -98.8153    0.0000 H   0  0  0  0  0  0  0  0  0  0  0  0
   26.9702  -99.9000    0.0000 C   0  0  0  0  0  0  0  0  0  0  0  0
   26.2329  -99.5298    0.0000 H   0  0  0  0  0  0  0  0  0  0  0  0
   26.2329 -100.2703    0.0000 H   0  0  0  0  0  0  0  0  0  0  0  0
   27.3827 -100.6145    0.0000 O   0  0  0  0  0  0  0  0  0  0  0  0
   26.9702 -101.3290    0.0000 C   0  0  0  0  0  0  0  0  0  0  0  0
   26.2329 -100.9587    0.0000 H   0  0  0  0  0  0  0  0  0  0  0  0
   26.2329 -101.6992    0.0000 H   0  0  0  0  0  0  0  0  0  0  0  0
   27.3827 -102.0435    0.0000 O   0  0  0  0  0  0  0  0  0  0  0  0
   26.9702 -102.7579    0.0000 C   0  0  0  0  0  0  0  0  0  0  0  0
   26.2329 -102.3876    0.0000 H   0  0  0  0  0  0  0  0  0  0  0  0
   26.2329 -103.1282    0.0000 H   0  0  0  0  0  0  0  0  0  0  0  0
   27.3827 -103.4724    0.0000 C   0  0  0  0  0  0  0  0  0  0  0  0
   28.1199 -103.8426    0.0000 H   0  0  0  0  0  0  0  0  0  0  0  0
   28.1199 -103.1021    0.0000 H   0  0  0  0  0  0  0  0  0  0  0  0
   26.9702 -104.1868    0.0000 O   0  0  0  0  0  0  0  0  0  0  0  0
   27.3827 -104.9013    0.0000 C   0  0  0  0  0  0  0  0  0  0  0  0
   28.1199 -105.2716    0.0000 H   0  0  0  0  0  0  0  0  0  0  0  0
   28.1199 -104.5310    0.0000 H   0  0  0  0  0  0  0  0  0  0  0  0
   26.9702 -105.6158    0.0000 O   0  0  0  0  0  0  0  0  0  0  0  0
   27.3827 -106.3302    0.0000 C   0  0  0  0  0  0  0  0  0  0  0  0
   28.1199 -106.7005    0.0000 H   0  0  0  0  0  0  0  0  0  0  0  0
   28.1199 -105.9600    0.0000 H   0  0  0  0  0  0  0  0  0  0  0  0
   26.9702 -107.0447    0.0000 C   0  0  0  0  0  0  0  0  0  0  0  0
   26.2329 -106.6745    0.0000 H   0  0  0  0  0  0  0  0  0  0  0  0
   26.2329 -107.4150    0.0000 H   0  0  0  0  0  0  0  0  0  0  0  0
   27.3827 -107.7592    0.0000 O   0  0  0  0  0  0  0  0  0  0  0  0
   26.9702 -108.4737    0.0000 C   0  0  0  0  0  0  0  0  0  0  0  0
   26.2329 -108.1034    0.0000 H   0  0  0  0  0  0  0  0  0  0  0  0
   26.2329 -108.8439    0.0000 H   0  0  0  0  0  0  0  0  0  0  0  0
   27.3827 -109.1882    0.0000 O   0  0  0  0  0  0  0  0  0  0  0  0
   26.9702 -109.9026    0.0000 C   0  0  0  0  0  0  0  0  0  0  0  0
   26.2329 -109.5324    0.0000 H   0  0  0  0  0  0  0  0  0  0  0  0
   26.2329 -110.2729    0.0000 H   0  0  0  0  0  0  0  0  0  0  0  0
   27.3827 -110.6171    0.0000 C   0  0  0  0  0  0  0  0  0  0  0  0
   28.1199 -110.9874    0.0000 H   0  0  0  0  0  0  0  0  0  0  0  0
   28.1199 -110.2468    0.0000 H   0  0  0  0  0  0  0  0  0  0  0  0
   26.9702 -111.3316    0.0000 O   0  0  0  0  0  0  0  0  0  0  0  0
   27.3827 -112.0460    0.0000 C   0  0  0  0  0  0  0  0  0  0  0  0
   28.1199 -112.4163    0.0000 H   0  0  0  0  0  0  0  0  0  0  0  0
   28.1199 -111.6758    0.0000 H   0  0  0  0  0  0  0  0  0  0  0  0
   26.9702 -112.7605    0.0000 O   0  0  0  0  0  0  0  0  0  0  0  0
   27.3827 -113.4750    0.0000 C   0  0  0  0  0  0  0  0  0  0  0  0
   28.1199 -113.8452    0.0000 H   0  0  0  0  0  0  0  0  0  0  0  0
   28.1199 -113.1047    0.0000 H   0  0  0  0  0  0  0  0  0  0  0  0
   26.9702 -114.1894    0.0000 C   0  0  0  0  0  0  0  0  0  0  0  0
   26.2329 -113.8192    0.0000 H   0  0  0  0  0  0  0  0  0  0  0  0
   26.2329 -114.5597    0.0000 H   0  0  0  0  0  0  0  0  0  0  0  0
   27.3827 -114.9039    0.0000 O   0  0  0  0  0  0  0  0  0  0  0  0
   26.9702 -115.6184    0.0000 C   0  0  0  0  0  0  0  0  0  0  0  0
   26.2329 -115.2481    0.0000 H   0  0  0  0  0  0  0  0  0  0  0  0
   26.2329 -115.9886    0.0000 H   0  0  0  0  0  0  0  0  0  0  0  0
   27.3827 -116.3328    0.0000 O   0  0  0  0  0  0  0  0  0  0  0  0
   26.9702 -117.0473    0.0000 C   0  0  0  0  0  0  0  0  0  0  0  0
   26.2329 -116.6771    0.0000 H   0  0  0  0  0  0  0  0  0  0  0  0
   26.2329 -117.4176    0.0000 H   0  0  0  0  0  0  0  0  0  0  0  0
   27.3827 -117.7618    0.0000 C   0  0  0  0  0  0  0  0  0  0  0  0
   28.1199 -118.1321    0.0000 H   0  0  0  0  0  0  0  0  0  0  0  0
   28.1199 -117.3916    0.0000 H   0  0  0  0  0  0  0  0  0  0  0  0
   26.9702 -118.4763    0.0000 O   0  0  0  0  0  0  0  0  0  0  0  0
   27.3827 -119.1908    0.0000 C   0  0  0  0  0  0  0  0  0  0  0  0
   28.1199 -119.5610    0.0000 H   0  0  0  0  0  0  0  0  0  0  0  0
   28.1199 -118.8205    0.0000 H   0  0  0  0  0  0  0  0  0  0  0  0
   26.9702 -119.9052    0.0000 O   0  0  0  0  0  0  0  0  0  0  0  0
   27.3827 -120.6197    0.0000 C   0  0  0  0  0  0  0  0  0  0  0  0
   28.1199 -120.9900    0.0000 H   0  0  0  0  0  0  0  0  0  0  0  0
   28.1199 -120.2494    0.0000 H   0  0  0  0  0  0  0  0  0  0  0  0
   26.9702 -121.3341    0.0000 C   0  0  0  0  0  0  0  0  0  0  0  0
   26.2329 -120.9639    0.0000 H   0  0  0  0  0  0  0  0  0  0  0  0
   26.2329 -121.7044    0.0000 H   0  0  0  0  0  0  0  0  0  0  0  0
   27.3827 -122.0486    0.0000 O   0  0  0  0  0  0  0  0  0  0  0  0
   26.9702 -122.7631    0.0000 C   0  0  0  0  0  0  0  0  0  0  0  0
   26.2329 -122.3928    0.0000 H   0  0  0  0  0  0  0  0  0  0  0  0
   26.2329 -123.1333    0.0000 H   0  0  0  0  0  0  0  0  0  0  0  0
   27.3827 -123.4775    0.0000 O   0  0  0  0  0  0  0  0  0  0  0  0
   26.9702 -124.1920    0.0000 C   0  0  0  0  0  0  0  0  0  0  0  0
   26.2329 -123.8218    0.0000 H   0  0  0  0  0  0  0  0  0  0  0  0
   26.2329 -124.5623    0.0000 H   0  0  0  0  0  0  0  0  0  0  0  0
   27.3827 -124.9065    0.0000 C   0  0  0  0  0  0  0  0  0  0  0  0
   28.1199 -125.2767    0.0000 H   0  0  0  0  0  0  0  0  0  0  0  0
   28.1199 -124.5362    0.0000 H   0  0  0  0  0  0  0  0  0  0  0  0
   26.9702 -125.6210    0.0000 O   0  0  0  0  0  0  0  0  0  0  0  0
   27.3827 -126.3355    0.0000 C   0  0  0  0  0  0  0  0  0  0  0  0
   28.1199 -126.7057    0.0000 H   0  0  0  0  0  0  0  0  0  0  0  0
   28.1199 -125.9652    0.0000 H   0  0  0  0  0  0  0  0  0  0  0  0
   26.9702 -127.0499    0.0000 O   0  0  0  0  0  0  0  0  0  0  0  0
   27.3827 -127.7644    0.0000 C   0  0  0  0  0  0  0  0  0  0  0  0
   28.1199 -128.1347    0.0000 H   0  0  0  0  0  0  0  0  0  0  0  0
   28.1199 -127.3941    0.0000 H   0  0  0  0  0  0  0  0  0  0  0  0
   26.9702 -128.4789    0.0000 C   0  0  0  0  0  0  0  0  0  0  0  0
   26.2329 -128.1086    0.0000 H   0  0  0  0  0  0  0  0  0  0  0  0
   26.2329 -128.8491    0.0000 H   0  0  0  0  0  0  0  0  0  0  0  0
   27.3827 -129.1933    0.0000 O   0  0  0  0  0  0  0  0  0  0  0  0
   26.9702 -129.9078    0.0000 C   0  0  0  0  0  0  0  0  0  0  0  0
   26.2329 -129.5375    0.0000 H   0  0  0  0  0  0  0  0  0  0  0  0
   26.2329 -130.2781    0.0000 H   0  0  0  0  0  0  0  0  0  0  0  0
   27.3827 -130.6223    0.0000 O   0  0  0  0  0  0  0  0  0  0  0  0
   26.9702 -131.3367    0.0000 C   0  0  0  0  0  0  0  0  0  0  0  0
   26.2329 -130.9665    0.0000 H   0  0  0  0  0  0  0  0  0  0  0  0
   26.2329 -131.7070    0.0000 H   0  0  0  0  0  0  0  0  0  0  0  0
   27.3827 -132.0512    0.0000 C   0  0  0  0  0  0  0  0  0  0  0  0
   28.1199 -132.4215    0.0000 H   0  0  0  0  0  0  0  0  0  0  0  0
   28.1199 -131.6809    0.0000 H   0  0  0  0  0  0  0  0  0  0  0  0
   26.9702 -132.7657    0.0000 O   0  0  0  0  0  0  0  0  0  0  0  0
   27.3827 -133.4801    0.0000 C   0  0  0  0  0  0  0  0  0  0  0  0
   28.1199 -133.8504    0.0000 H   0  0  0  0  0  0  0  0  0  0  0  0
   28.1199 -133.1099    0.0000 H   0  0  0  0  0  0  0  0  0  0  0  0
   26.9702 -134.1946    0.0000 O   0  0  0  0  0  0  0  0  0  0  0  0
   27.3827 -134.9091    0.0000 C   0  0  0  0  0  0  0  0  0  0  0  0
   28.1199 -135.2794    0.0000 H   0  0  0  0  0  0  0  0  0  0  0  0
   28.1199 -134.5389    0.0000 H   0  0  0  0  0  0  0  0  0  0  0  0
   26.9702 -135.6236    0.0000 C   0  0  0  0  0  0  0  0  0  0  0  0
   26.2329 -135.2533    0.0000 H   0  0  0  0  0  0  0  0  0  0  0  0
   26.2329 -135.9938    0.0000 H   0  0  0  0  0  0  0  0  0  0  0  0
   27.3827 -136.3381    0.0000 O   0  0  0  0  0  0  0  0  0  0  0  0
   26.9702 -137.0525    0.0000 C   0  0  0  0  0  0  0  0  0  0  0  0
   26.2329 -136.6823    0.0000 H   0  0  0  0  0  0  0  0  0  0  0  0
   26.2329 -137.4228    0.0000 H   0  0  0  0  0  0  0  0  0  0  0  0
   27.3827 -137.7670    0.0000 O   0  0  0  0  0  0  0  0  0  0  0  0
   26.9702 -138.4815    0.0000 C   0  0  0  0  0  0  0  0  0  0  0  0
   26.2329 -138.1112    0.0000 H   0  0  0  0  0  0  0  0  0  0  0  0
   26.2329 -138.8517    0.0000 H   0  0  0  0  0  0  0  0  0  0  0  0
   27.3827 -139.1959    0.0000 C   0  0  0  0  0  0  0  0  0  0  0  0
   28.1199 -139.5662    0.0000 H   0  0  0  0  0  0  0  0  0  0  0  0
   28.1199 -138.8256    0.0000 H   0  0  0  0  0  0  0  0  0  0  0  0
   26.9702 -139.9104    0.0000 O   0  0  0  0  0  0  0  0  0  0  0  0
   27.3827 -140.6248    0.0000 C   0  0  0  0  0  0  0  0  0  0  0  0
   28.1199 -140.9951    0.0000 H   0  0  0  0  0  0  0  0  0  0  0  0
   28.1199 -140.2546    0.0000 H   0  0  0  0  0  0  0  0  0  0  0  0
   26.9702 -141.3393    0.0000 O   0  0  0  0  0  0  0  0  0  0  0  0
   27.3827 -142.0538    0.0000 C   0  0  0  0  0  0  0  0  0  0  0  0
   28.1199 -142.4240    0.0000 H   0  0  0  0  0  0  0  0  0  0  0  0
   28.1199 -141.6835    0.0000 H   0  0  0  0  0  0  0  0  0  0  0  0
   26.9702 -142.7683    0.0000 C   0  0  0  0  0  0  0  0  0  0  0  0
   26.2329 -142.3980    0.0000 H   0  0  0  0  0  0  0  0  0  0  0  0
   26.2329 -143.1385    0.0000 H   0  0  0  0  0  0  0  0  0  0  0  0
   27.3827 -143.4828    0.0000 O   0  0  0  0  0  0  0  0  0  0  0  0
   26.9702 -144.1972    0.0000 C   0  0  0  0  0  0  0  0  0  0  0  0
   26.2329 -143.8270    0.0000 H   0  0  0  0  0  0  0  0  0  0  0  0
   26.2329 -144.5675    0.0000 H   0  0  0  0  0  0  0  0  0  0  0  0
   27.3827 -144.9117    0.0000 O   0  0  0  0  0  0  0  0  0  0  0  0
   26.9702 -145.6262    0.0000 C   0  0  0  0  0  0  0  0  0  0  0  0
   26.2329 -145.2559    0.0000 H   0  0  0  0  0  0  0  0  0  0  0  0
   26.2329 -145.9964    0.0000 H   0  0  0  0  0  0  0  0  0  0  0  0
   27.3827 -146.3406    0.0000 C   0  0  0  0  0  0  0  0  0  0  0  0
   28.1199 -146.7109    0.0000 H   0  0  0  0  0  0  0  0  0  0  0  0
   28.1199 -145.9704    0.0000 H   0  0  0  0  0  0  0  0  0  0  0  0
   26.9702 -147.0551    0.0000 O   0  0  0  0  0  0  0  0  0  0  0  0
   27.3827 -147.7696    0.0000 C   0  0  0  0  0  0  0  0  0  0  0  0
   28.1199 -148.1398    0.0000 H   0  0  0  0  0  0  0  0  0  0  0  0
   28.1199 -147.3993    0.0000 H   0  0  0  0  0  0  0  0  0  0  0  0
   26.9702 -148.4840    0.0000 O   0  0  0  0  0  0  0  0  0  0  0  0
   27.3827 -149.1985    0.0000 C   0  0  0  0  0  0  0  0  0  0  0  0
   28.1199 -149.5688    0.0000 H   0  0  0  0  0  0  0  0  0  0  0  0
   28.1199 -148.8282    0.0000 H   0  0  0  0  0  0  0  0  0  0  0  0
   26.9702 -149.9130    0.0000 C   0  0  0  0  0  0  0  0  0  0  0  0
   26.2329 -149.5427    0.0000 H   0  0  0  0  0  0  0  0  0  0  0  0
   26.2329 -150.2832    0.0000 H   0  0  0  0  0  0  0  0  0  0  0  0
   27.3827 -150.6274    0.0000 O   0  0  0  0  0  0  0  0  0  0  0  0
   26.9702 -151.3419    0.0000 C   0  0  0  0  0  0  0  0  0  0  0  0
   26.2329 -150.9717    0.0000 H   0  0  0  0  0  0  0  0  0  0  0  0
   26.2329 -151.7122    0.0000 H   0  0  0  0  0  0  0  0  0  0  0  0
   27.3827 -152.0564    0.0000 O   0  0  0  0  0  0  0  0  0  0  0  0
   26.9702 -152.7709    0.0000 C   0  0  0  0  0  0  0  0  0  0  0  0
   26.2329 -152.4006    0.0000 H   0  0  0  0  0  0  0  0  0  0  0  0
   26.2329 -153.1411    0.0000 H   0  0  0  0  0  0  0  0  0  0  0  0
   27.3827 -153.4854    0.0000 C   0  0  0  0  0  0  0  0  0  0  0  0
   28.1199 -153.8556    0.0000 H   0  0  0  0  0  0  0  0  0  0  0  0
   28.1199 -153.1151    0.0000 H   0  0  0  0  0  0  0  0  0  0  0  0
   26.9702 -154.1998    0.0000 O   0  0  0  0  0  0  0  0  0  0  0  0
   27.3827 -154.9143    0.0000 C   0  0  0  0  0  0  0  0  0  0  0  0
   28.1199 -155.2846    0.0000 H   0  0  0  0  0  0  0  0  0  0  0  0
   28.1199 -154.5440    0.0000 H   0  0  0  0  0  0  0  0  0  0  0  0
   26.9702 -155.6288    0.0000 O   0  0  0  0  0  0  0  0  0  0  0  0
   27.3827 -156.3432    0.0000 C   0  0  0  0  0  0  0  0  0  0  0  0
   28.1199 -156.7135    0.0000 H   0  0  0  0  0  0  0  0  0  0  0  0
   28.1199 -155.9730    0.0000 H   0  0  0  0  0  0  0  0  0  0  0  0
   26.9702 -157.0577    0.0000 C   0  0  0  0  0  0  0  0  0  0  0  0
   26.2329 -156.6874    0.0000 H   0  0  0  0  0  0  0  0  0  0  0  0
   26.2329 -157.4280    0.0000 H   0  0  0  0  0  0  0  0  0  0  0  0
   27.3827 -157.7721    0.0000 O   0  0  0  0  0  0  0  0  0  0  0  0
   26.9702 -158.4866    0.0000 C   0  0  0  0  0  0  0  0  0  0  0  0
   26.2329 -158.1164    0.0000 H   0  0  0  0  0  0  0  0  0  0  0  0
   26.2329 -158.8569    0.0000 H   0  0  0  0  0  0  0  0  0  0  0  0
   27.3827 -159.2011    0.0000 O   0  0  0  0  0  0  0  0  0  0  0  0
   26.9702 -159.9156    0.0000 C   0  0  0  0  0  0  0  0  0  0  0  0
   26.2329 -159.5453    0.0000 H   0  0  0  0  0  0  0  0  0  0  0  0
   26.2329 -160.2858    0.0000 H   0  0  0  0  0  0  0  0  0  0  0  0
   27.3827 -160.6301    0.0000 C   0  0  0  0  0  0  0  0  0  0  0  0
   28.1199 -161.0003    0.0000 H   0  0  0  0  0  0  0  0  0  0  0  0
   28.1199 -160.2598    0.0000 H   0  0  0  0  0  0  0  0  0  0  0  0
   26.9702 -161.3445    0.0000 O   0  0  0  0  0  0  0  0  0  0  0  0
   27.3827 -162.0590    0.0000 C   0  0  0  0  0  0  0  0  0  0  0  0
   28.1199 -162.4293    0.0000 H   0  0  0  0  0  0  0  0  0  0  0  0
   28.1199 -161.6888    0.0000 H   0  0  0  0  0  0  0  0  0  0  0  0
   26.9702 -162.7735    0.0000 O   0  0  0  0  0  0  0  0  0  0  0  0
   27.3827 -163.4880    0.0000 C   0  0  0  0  0  0  0  0  0  0  0  0
   28.1199 -163.8582    0.0000 H   0  0  0  0  0  0  0  0  0  0  0  0
   28.1199 -163.1177    0.0000 H   0  0  0  0  0  0  0  0  0  0  0  0
   26.9702 -164.2024    0.0000 C   0  0  0  0  0  0  0  0  0  0  0  0
   26.2329 -163.8321    0.0000 H   0  0  0  0  0  0  0  0  0  0  0  0
   26.2329 -164.5727    0.0000 H   0  0  0  0  0  0  0  0  0  0  0  0
   27.3827 -164.9169    0.0000 O   0  0  0  0  0  0  0  0  0  0  0  0
   26.9702 -165.6313    0.0000 C   0  0  0  0  0  0  0  0  0  0  0  0
   26.2329 -165.2611    0.0000 H   0  0  0  0  0  0  0  0  0  0  0  0
   26.2329 -166.0016    0.0000 H   0  0  0  0  0  0  0  0  0  0  0  0
   27.3827 -166.3458    0.0000 O   0  0  0  0  0  0  0  0  0  0  0  0
   26.9702 -167.0603    0.0000 C   0  0  0  0  0  0  0  0  0  0  0  0
   26.2329 -166.6900    0.0000 H   0  0  0  0  0  0  0  0  0  0  0  0
   26.2329 -167.4305    0.0000 H   0  0  0  0  0  0  0  0  0  0  0  0
   27.3827 -167.7747    0.0000 C   0  0  0  0  0  0  0  0  0  0  0  0
   28.1199 -168.1450    0.0000 H   0  0  0  0  0  0  0  0  0  0  0  0
   28.1199 -167.4045    0.0000 H   0  0  0  0  0  0  0  0  0  0  0  0
   26.9702 -168.4892    0.0000 O   0  0  0  0  0  0  0  0  0  0  0  0
   27.3827 -169.2037    0.0000 C   0  0  0  0  0  0  0  0  0  0  0  0
   28.1199 -169.5740    0.0000 H   0  0  0  0  0  0  0  0  0  0  0  0
   28.1199 -168.8334    0.0000 H   0  0  0  0  0  0  0  0  0  0  0  0
   26.9702 -169.9182    0.0000 O   0  0  0  0  0  0  0  0  0  0  0  0
   27.3827 -170.6327    0.0000 O   0  0  0  0  0  0  0  0  0  0  0  0
   26.9702 -171.3471    0.0000 C   0  0  1  0  0  0  0  0  0  0  0  0
   26.5847 -170.6177    0.0000 H   0  0  0  0  0  0  0  0  0  0  0  0
   27.4349 -172.0287    0.0000 O   0  0  0  0  0  0  0  0  0  0  0  0
   27.1917 -172.8171    0.0000 C   0  0  1  0  0  0  0  0  0  0  0  0
   27.0384 -173.6277    0.0000 H   0  0  0  0  0  0  0  0  0  0  0  0
   27.7965 -173.3783    0.0000 C   0  0  0  0  0  0  0  0  0  0  0  0
   27.6229 -174.1848    0.0000 H   0  0  0  0  0  0  0  0  0  0  0  0
   28.4048 -173.9356    0.0000 H   0  0  0  0  0  0  0  0  0  0  0  0
   28.5849 -173.1351    0.0000 O   0  0  0  0  0  0  0  0  0  0  0  0
   29.1451 -172.5294    0.0000 H   0  0  0  0  0  0  0  0  0  0  0  0
   26.4237 -173.1185    0.0000 C   0  0  1  0  0  0  0  0  0  0  0  0
   25.6944 -173.5040    0.0000 H   0  0  0  0  0  0  0  0  0  0  0  0
   26.3621 -173.9412    0.0000 O   0  0  0  0  0  0  0  0  0  0  0  0
   26.3021 -174.7640    0.0000 H   0  0  0  0  0  0  0  0  0  0  0  0
   25.7093 -172.7060    0.0000 C   0  0  1  0  0  0  0  0  0  0  0  0
   24.9531 -172.3761    0.0000 H   0  0  0  0  0  0  0  0  0  0  0  0
   25.0277 -173.1708    0.0000 O   0  0  0  0  0  0  0  0  0  0  0  0
   24.3469 -173.6368    0.0000 H   0  0  0  0  0  0  0  0  0  0  0  0
   25.5863 -171.8903    0.0000 C   0  0  1  0  0  0  0  0  0  0  0  0
   25.3728 -171.0933    0.0000 H   0  0  0  0  0  0  0  0  0  0  0  0
   24.7980 -171.6470    0.0000 O   0  0  0  0  0  0  0  0  0  0  0  0
   24.0092 -171.4054    0.0000 H   0  0  0  0  0  0  0  0  0  0  0  0
   26.1475 -171.2855    0.0000 C   0  0  1  0  0  0  0  0  0  0  0  0
   26.4489 -172.0534    0.0000 H   0  0  0  0  0  0  0  0  0  0  0  0
   25.8461 -170.5175    0.0000 O   0  0  0  0  0  0  0  0  0  0  0  0
   25.5447 -169.7495    0.0000 H   0  0  0  0  0  0  0  0  0  0  0  0
   25.0182  -84.4836    0.0000 C   0  0  0  0  0  0  0  0  0  0  0  0
   24.1946  -84.5316    0.0000 H   0  0  0  0  0  0  0  0  0  0  0  0
   24.5649  -85.1729    0.0000 H   0  0  0  0  0  0  0  0  0  0  0  0
   25.0182  -83.6586    0.0000 O   0  0  0  0  0  0  0  0  0  0  0  0
   25.7327  -83.2461    0.0000 C   0  0  0  0  0  0  0  0  0  0  0  0
   26.1029  -82.5089    0.0000 H   0  0  0  0  0  0  0  0  0  0  0  0
   25.3624  -82.5089    0.0000 H   0  0  0  0  0  0  0  0  0  0  0  0
   26.4471  -83.6586    0.0000 C   0  0  0  0  0  0  0  0  0  0  0  0
   26.7293  -82.8834    0.0000 H   0  0  0  0  0  0  0  0  0  0  0  0
   26.1650  -82.8834    0.0000 H   0  0  0  0  0  0  0  0  0  0  0  0
   27.1616  -83.2461    0.0000 O   0  0  0  0  0  0  0  0  0  0  0  0
   27.8761  -83.6586    0.0000 C   0  0  0  0  0  0  0  0  0  0  0  0
   27.2247  -84.1648    0.0000 H   0  0  0  0  0  0  0  0  0  0  0  0
   27.8761  -82.8336    0.0000 H   0  0  0  0  0  0  0  0  0  0  0  0
   28.5905  -83.2461    0.0000 O   0  0  0  0  0  0  0  0  0  0  0  0
   29.3050  -83.6586    0.0000 C   0  0  0  0  0  0  0  0  0  0  0  0
   28.9347  -84.3959    0.0000 H   0  0  0  0  0  0  0  0  0  0  0  0
   29.6753  -84.3959    0.0000 H   0  0  0  0  0  0  0  0  0  0  0  0
   30.0195  -83.2461    0.0000 C   0  0  0  0  0  0  0  0  0  0  0  0
   30.3897  -82.5089    0.0000 H   0  0  0  0  0  0  0  0  0  0  0  0
   29.6492  -82.5089    0.0000 H   0  0  0  0  0  0  0  0  0  0  0  0
   30.7340  -83.6586    0.0000 O   0  0  0  0  0  0  0  0  0  0  0  0
   31.4484  -83.2461    0.0000 C   0  0  0  0  0  0  0  0  0  0  0  0
   31.8187  -82.5089    0.0000 H   0  0  0  0  0  0  0  0  0  0  0  0
   31.0782  -82.5089    0.0000 H   0  0  0  0  0  0  0  0  0  0  0  0
   32.1629  -83.6586    0.0000 O   0  0  0  0  0  0  0  0  0  0  0  0
   32.8774  -83.2461    0.0000 C   0  0  0  0  0  0  0  0  0  0  0  0
   33.2476  -82.5089    0.0000 H   0  0  0  0  0  0  0  0  0  0  0  0
   32.5071  -82.5089    0.0000 H   0  0  0  0  0  0  0  0  0  0  0  0
   33.5919  -83.6586    0.0000 C   0  0  0  0  0  0  0  0  0  0  0  0
   33.2216  -84.3959    0.0000 H   0  0  0  0  0  0  0  0  0  0  0  0
   33.9621  -84.3959    0.0000 H   0  0  0  0  0  0  0  0  0  0  0  0
   34.3063  -83.2461    0.0000 O   0  0  0  0  0  0  0  0  0  0  0  0
   35.0208  -83.6586    0.0000 C   0  0  0  0  0  0  0  0  0  0  0  0
   34.6505  -84.3959    0.0000 H   0  0  0  0  0  0  0  0  0  0  0  0
   35.3911  -84.3959    0.0000 H   0  0  0  0  0  0  0  0  0  0  0  0
   35.7353  -83.2461    0.0000 O   0  0  0  0  0  0  0  0  0  0  0  0
   36.4497  -83.6586    0.0000 C   0  0  0  0  0  0  0  0  0  0  0  0
   36.0795  -84.3959    0.0000 H   0  0  0  0  0  0  0  0  0  0  0  0
   36.8200  -84.3959    0.0000 H   0  0  0  0  0  0  0  0  0  0  0  0
   37.1642  -83.2461    0.0000 C   0  0  0  0  0  0  0  0  0  0  0  0
   37.5345  -82.5089    0.0000 H   0  0  0  0  0  0  0  0  0  0  0  0
   36.7939  -82.5089    0.0000 H   0  0  0  0  0  0  0  0  0  0  0  0
   37.8786  -83.6586    0.0000 O   0  0  0  0  0  0  0  0  0  0  0  0
   38.5931  -83.2461    0.0000 C   0  0  0  0  0  0  0  0  0  0  0  0
   38.9634  -82.5089    0.0000 H   0  0  0  0  0  0  0  0  0  0  0  0
   38.2229  -82.5089    0.0000 H   0  0  0  0  0  0  0  0  0  0  0  0
   39.3076  -83.6586    0.0000 O   0  0  0  0  0  0  0  0  0  0  0  0
   40.0221  -83.2461    0.0000 C   0  0  0  0  0  0  0  0  0  0  0  0
   40.3923  -82.5089    0.0000 H   0  0  0  0  0  0  0  0  0  0  0  0
   39.6518  -82.5089    0.0000 H   0  0  0  0  0  0  0  0  0  0  0  0
   40.7366  -83.6586    0.0000 C   0  0  0  0  0  0  0  0  0  0  0  0
   40.3663  -84.3959    0.0000 H   0  0  0  0  0  0  0  0  0  0  0  0
   41.1068  -84.3959    0.0000 H   0  0  0  0  0  0  0  0  0  0  0  0
   41.4510  -83.2461    0.0000 O   0  0  0  0  0  0  0  0  0  0  0  0
   42.1655  -83.6586    0.0000 C   0  0  0  0  0  0  0  0  0  0  0  0
   41.7953  -84.3959    0.0000 H   0  0  0  0  0  0  0  0  0  0  0  0
   42.5358  -84.3959    0.0000 H   0  0  0  0  0  0  0  0  0  0  0  0
   42.8800  -83.2461    0.0000 O   0  0  0  0  0  0  0  0  0  0  0  0
   43.5945  -83.6586    0.0000 C   0  0  0  0  0  0  0  0  0  0  0  0
   43.2242  -84.3959    0.0000 H   0  0  0  0  0  0  0  0  0  0  0  0
   43.9647  -84.3959    0.0000 H   0  0  0  0  0  0  0  0  0  0  0  0
   44.3089  -83.2461    0.0000 C   0  0  0  0  0  0  0  0  0  0  0  0
   44.6792  -82.5089    0.0000 H   0  0  0  0  0  0  0  0  0  0  0  0
   43.9386  -82.5089    0.0000 H   0  0  0  0  0  0  0  0  0  0  0  0
   45.0234  -83.6586    0.0000 O   0  0  0  0  0  0  0  0  0  0  0  0
   45.7378  -83.2461    0.0000 C   0  0  0  0  0  0  0  0  0  0  0  0
   46.1081  -82.5089    0.0000 H   0  0  0  0  0  0  0  0  0  0  0  0
   45.3676  -82.5089    0.0000 H   0  0  0  0  0  0  0  0  0  0  0  0
   46.4523  -83.6586    0.0000 O   0  0  0  0  0  0  0  0  0  0  0  0
   47.1668  -83.2461    0.0000 C   0  0  0  0  0  0  0  0  0  0  0  0
   47.5370  -82.5089    0.0000 H   0  0  0  0  0  0  0  0  0  0  0  0
   46.7965  -82.5089    0.0000 H   0  0  0  0  0  0  0  0  0  0  0  0
   47.8812  -83.6586    0.0000 C   0  0  0  0  0  0  0  0  0  0  0  0
   47.5110  -84.3959    0.0000 H   0  0  0  0  0  0  0  0  0  0  0  0
   48.2515  -84.3959    0.0000 H   0  0  0  0  0  0  0  0  0  0  0  0
   48.5957  -83.2461    0.0000 O   0  0  0  0  0  0  0  0  0  0  0  0
   49.3102  -83.6586    0.0000 C   0  0  0  0  0  0  0  0  0  0  0  0
   48.9400  -84.3959    0.0000 H   0  0  0  0  0  0  0  0  0  0  0  0
   49.6805  -84.3959    0.0000 H   0  0  0  0  0  0  0  0  0  0  0  0
   50.0247  -83.2461    0.0000 O   0  0  0  0  0  0  0  0  0  0  0  0
   50.7392  -83.6586    0.0000 C   0  0  0  0  0  0  0  0  0  0  0  0
   50.3689  -84.3959    0.0000 H   0  0  0  0  0  0  0  0  0  0  0  0
   51.1094  -84.3959    0.0000 H   0  0  0  0  0  0  0  0  0  0  0  0
   51.4536  -83.2461    0.0000 C   0  0  0  0  0  0  0  0  0  0  0  0
   51.8239  -82.5089    0.0000 H   0  0  0  0  0  0  0  0  0  0  0  0
   51.0834  -82.5089    0.0000 H   0  0  0  0  0  0  0  0  0  0  0  0
   52.1681  -83.6586    0.0000 O   0  0  0  0  0  0  0  0  0  0  0  0
   52.8826  -83.2461    0.0000 C   0  0  0  0  0  0  0  0  0  0  0  0
   53.2528  -82.5089    0.0000 H   0  0  0  0  0  0  0  0  0  0  0  0
   52.5123  -82.5089    0.0000 H   0  0  0  0  0  0  0  0  0  0  0  0
   53.5970  -83.6586    0.0000 O   0  0  0  0  0  0  0  0  0  0  0  0
   54.3115  -83.2461    0.0000 C   0  0  0  0  0  0  0  0  0  0  0  0
   54.6818  -82.5089    0.0000 H   0  0  0  0  0  0  0  0  0  0  0  0
   53.9412  -82.5089    0.0000 H   0  0  0  0  0  0  0  0  0  0  0  0
   55.0260  -83.6586    0.0000 C   0  0  0  0  0  0  0  0  0  0  0  0
   54.6557  -84.3959    0.0000 H   0  0  0  0  0  0  0  0  0  0  0  0
   55.3962  -84.3959    0.0000 H   0  0  0  0  0  0  0  0  0  0  0  0
   55.7404  -83.2461    0.0000 O   0  0  0  0  0  0  0  0  0  0  0  0
   56.4549  -83.6586    0.0000 C   0  0  0  0  0  0  0  0  0  0  0  0
   56.0846  -84.3959    0.0000 H   0  0  0  0  0  0  0  0  0  0  0  0
   56.8251  -84.3959    0.0000 H   0  0  0  0  0  0  0  0  0  0  0  0
   57.1694  -83.2461    0.0000 O   0  0  0  0  0  0  0  0  0  0  0  0
   57.8839  -83.6586    0.0000 C   0  0  0  0  0  0  0  0  0  0  0  0
   57.5136  -84.3959    0.0000 H   0  0  0  0  0  0  0  0  0  0  0  0
   58.2541  -84.3959    0.0000 H   0  0  0  0  0  0  0  0  0  0  0  0
   58.5983  -83.2461    0.0000 C   0  0  0  0  0  0  0  0  0  0  0  0
   58.9686  -82.5089    0.0000 H   0  0  0  0  0  0  0  0  0  0  0  0
   58.2281  -82.5089    0.0000 H   0  0  0  0  0  0  0  0  0  0  0  0
   59.3128  -83.6586    0.0000 O   0  0  0  0  0  0  0  0  0  0  0  0
   60.0273  -83.2461    0.0000 C   0  0  0  0  0  0  0  0  0  0  0  0
   60.3975  -82.5089    0.0000 H   0  0  0  0  0  0  0  0  0  0  0  0
   59.6570  -82.5089    0.0000 H   0  0  0  0  0  0  0  0  0  0  0  0
   60.7418  -83.6586    0.0000 O   0  0  0  0  0  0  0  0  0  0  0  0
   61.4562  -83.2461    0.0000 C   0  0  0  0  0  0  0  0  0  0  0  0
   61.8265  -82.5089    0.0000 H   0  0  0  0  0  0  0  0  0  0  0  0
   61.0860  -82.5089    0.0000 H   0  0  0  0  0  0  0  0  0  0  0  0
   62.1707  -83.6586    0.0000 C   0  0  0  0  0  0  0  0  0  0  0  0
   61.8004  -84.3959    0.0000 H   0  0  0  0  0  0  0  0  0  0  0  0
   62.5410  -84.3959    0.0000 H   0  0  0  0  0  0  0  0  0  0  0  0
   62.8851  -83.2461    0.0000 O   0  0  0  0  0  0  0  0  0  0  0  0
   63.5996  -83.6586    0.0000 C   0  0  0  0  0  0  0  0  0  0  0  0
   63.2293  -84.3959    0.0000 H   0  0  0  0  0  0  0  0  0  0  0  0
   63.9699  -84.3959    0.0000 H   0  0  0  0  0  0  0  0  0  0  0  0
   64.3141  -83.2461    0.0000 O   0  0  0  0  0  0  0  0  0  0  0  0
   65.0285  -83.6586    0.0000 C   0  0  0  0  0  0  0  0  0  0  0  0
   64.6583  -84.3959    0.0000 H   0  0  0  0  0  0  0  0  0  0  0  0
   65.3988  -84.3959    0.0000 H   0  0  0  0  0  0  0  0  0  0  0  0
   65.7430  -83.2461    0.0000 C   0  0  0  0  0  0  0  0  0  0  0  0
   66.1133  -82.5089    0.0000 H   0  0  0  0  0  0  0  0  0  0  0  0
   65.3728  -82.5089    0.0000 H   0  0  0  0  0  0  0  0  0  0  0  0
   66.4575  -83.6586    0.0000 O   0  0  0  0  0  0  0  0  0  0  0  0
   67.1720  -83.2461    0.0000 C   0  0  0  0  0  0  0  0  0  0  0  0
   67.5422  -82.5089    0.0000 H   0  0  0  0  0  0  0  0  0  0  0  0
   66.8017  -82.5089    0.0000 H   0  0  0  0  0  0  0  0  0  0  0  0
   67.8865  -83.6586    0.0000 O   0  0  0  0  0  0  0  0  0  0  0  0
   68.6009  -83.2461    0.0000 C   0  0  0  0  0  0  0  0  0  0  0  0
   68.9712  -82.5089    0.0000 H   0  0  0  0  0  0  0  0  0  0  0  0
   68.2307  -82.5089    0.0000 H   0  0  0  0  0  0  0  0  0  0  0  0
   69.3154  -83.6586    0.0000 C   0  0  0  0  0  0  0  0  0  0  0  0
   68.9451  -84.3959    0.0000 H   0  0  0  0  0  0  0  0  0  0  0  0
   69.6857  -84.3959    0.0000 H   0  0  0  0  0  0  0  0  0  0  0  0
   70.0299  -83.2461    0.0000 O   0  0  0  0  0  0  0  0  0  0  0  0
   70.7443  -83.6586    0.0000 C   0  0  0  0  0  0  0  0  0  0  0  0
   70.3741  -84.3959    0.0000 H   0  0  0  0  0  0  0  0  0  0  0  0
   71.1146  -84.3959    0.0000 H   0  0  0  0  0  0  0  0  0  0  0  0
   71.4588  -83.2461    0.0000 O   0  0  0  0  0  0  0  0  0  0  0  0
   72.1733  -83.6586    0.0000 C   0  0  0  0  0  0  0  0  0  0  0  0
   71.8030  -84.3959    0.0000 H   0  0  0  0  0  0  0  0  0  0  0  0
   72.5435  -84.3959    0.0000 H   0  0  0  0  0  0  0  0  0  0  0  0
   72.8877  -83.2461    0.0000 C   0  0  0  0  0  0  0  0  0  0  0  0
   73.2580  -82.5089    0.0000 H   0  0  0  0  0  0  0  0  0  0  0  0
   72.5175  -82.5089    0.0000 H   0  0  0  0  0  0  0  0  0  0  0  0
   73.6022  -83.6586    0.0000 O   0  0  0  0  0  0  0  0  0  0  0  0
   74.3167  -83.2461    0.0000 C   0  0  0  0  0  0  0  0  0  0  0  0
   74.6869  -82.5089    0.0000 H   0  0  0  0  0  0  0  0  0  0  0  0
   73.9464  -82.5089    0.0000 H   0  0  0  0  0  0  0  0  0  0  0  0
   75.0312  -83.6586    0.0000 O   0  0  0  0  0  0  0  0  0  0  0  0
   75.7456  -83.2461    0.0000 C   0  0  0  0  0  0  0  0  0  0  0  0
   76.1159  -82.5089    0.0000 H   0  0  0  0  0  0  0  0  0  0  0  0
   75.3754  -82.5089    0.0000 H   0  0  0  0  0  0  0  0  0  0  0  0
   76.4601  -83.6586    0.0000 C   0  0  0  0  0  0  0  0  0  0  0  0
   76.0899  -84.3959    0.0000 H   0  0  0  0  0  0  0  0  0  0  0  0
   76.8304  -84.3959    0.0000 H   0  0  0  0  0  0  0  0  0  0  0  0
   77.1746  -83.2461    0.0000 O   0  0  0  0  0  0  0  0  0  0  0  0
   77.8891  -83.6586    0.0000 C   0  0  0  0  0  0  0  0  0  0  0  0
   77.5188  -84.3959    0.0000 H   0  0  0  0  0  0  0  0  0  0  0  0
   78.2593  -84.3959    0.0000 H   0  0  0  0  0  0  0  0  0  0  0  0
   78.6035  -83.2461    0.0000 O   0  0  0  0  0  0  0  0  0  0  0  0
   79.3180  -83.6586    0.0000 C   0  0  0  0  0  0  0  0  0  0  0  0
   78.9477  -84.3959    0.0000 H   0  0  0  0  0  0  0  0  0  0  0  0
   79.6883  -84.3959    0.0000 H   0  0  0  0  0  0  0  0  0  0  0  0
   80.0325  -83.2461    0.0000 C   0  0  0  0  0  0  0  0  0  0  0  0
   80.4027  -82.5089    0.0000 H   0  0  0  0  0  0  0  0  0  0  0  0
   79.6622  -82.5089    0.0000 H   0  0  0  0  0  0  0  0  0  0  0  0
   80.7469  -83.6586    0.0000 O   0  0  0  0  0  0  0  0  0  0  0  0
   81.4614  -83.2461    0.0000 C   0  0  0  0  0  0  0  0  0  0  0  0
   81.8316  -82.5089    0.0000 H   0  0  0  0  0  0  0  0  0  0  0  0
   81.0911  -82.5089    0.0000 H   0  0  0  0  0  0  0  0  0  0  0  0
   82.1758  -83.6586    0.0000 O   0  0  0  0  0  0  0  0  0  0  0  0
   82.8903  -83.2461    0.0000 C   0  0  0  0  0  0  0  0  0  0  0  0
   83.2606  -82.5089    0.0000 H   0  0  0  0  0  0  0  0  0  0  0  0
   82.5201  -82.5089    0.0000 H   0  0  0  0  0  0  0  0  0  0  0  0
   83.6048  -83.6586    0.0000 C   0  0  0  0  0  0  0  0  0  0  0  0
   83.2346  -84.3959    0.0000 H   0  0  0  0  0  0  0  0  0  0  0  0
   83.9751  -84.3959    0.0000 H   0  0  0  0  0  0  0  0  0  0  0  0
   84.3193  -83.2461    0.0000 O   0  0  0  0  0  0  0  0  0  0  0  0
   85.0338  -83.6586    0.0000 C   0  0  0  0  0  0  0  0  0  0  0  0
   84.6635  -84.3959    0.0000 H   0  0  0  0  0  0  0  0  0  0  0  0
   85.4040  -84.3959    0.0000 H   0  0  0  0  0  0  0  0  0  0  0  0
   85.7482  -83.2461    0.0000 O   0  0  0  0  0  0  0  0  0  0  0  0
   86.4627  -83.6586    0.0000 C   0  0  0  0  0  0  0  0  0  0  0  0
   86.0925  -84.3959    0.0000 H   0  0  0  0  0  0  0  0  0  0  0  0
   86.8330  -84.3959    0.0000 H   0  0  0  0  0  0  0  0  0  0  0  0
   87.1772  -83.2461    0.0000 C   0  0  0  0  0  0  0  0  0  0  0  0
   87.5475  -82.5089    0.0000 H   0  0  0  0  0  0  0  0  0  0  0  0
   86.8069  -82.5089    0.0000 H   0  0  0  0  0  0  0  0  0  0  0  0
   87.8916  -83.6586    0.0000 O   0  0  0  0  0  0  0  0  0  0  0  0
   88.6061  -83.2461    0.0000 C   0  0  0  0  0  0  0  0  0  0  0  0
   88.9764  -82.5089    0.0000 H   0  0  0  0  0  0  0  0  0  0  0  0
   88.2358  -82.5089    0.0000 H   0  0  0  0  0  0  0  0  0  0  0  0
   89.3206  -83.6586    0.0000 O   0  0  0  0  0  0  0  0  0  0  0  0
   90.0350  -83.2461    0.0000 C   0  0  0  0  0  0  0  0  0  0  0  0
   90.4053  -82.5089    0.0000 H   0  0  0  0  0  0  0  0  0  0  0  0
   89.6648  -82.5089    0.0000 H   0  0  0  0  0  0  0  0  0  0  0  0
   90.7495  -83.6586    0.0000 C   0  0  0  0  0  0  0  0  0  0  0  0
   90.3792  -84.3959    0.0000 H   0  0  0  0  0  0  0  0  0  0  0  0
   91.1198  -84.3959    0.0000 H   0  0  0  0  0  0  0  0  0  0  0  0
   91.4640  -83.2461    0.0000 O   0  0  0  0  0  0  0  0  0  0  0  0
   92.1785  -83.6586    0.0000 C   0  0  0  0  0  0  0  0  0  0  0  0
   91.8082  -84.3959    0.0000 H   0  0  0  0  0  0  0  0  0  0  0  0
   92.5487  -84.3959    0.0000 H   0  0  0  0  0  0  0  0  0  0  0  0
   92.8929  -83.2461    0.0000 O   0  0  0  0  0  0  0  0  0  0  0  0
   93.6074  -83.6586    0.0000 C   0  0  0  0  0  0  0  0  0  0  0  0
   93.2372  -84.3959    0.0000 H   0  0  0  0  0  0  0  0  0  0  0  0
   93.9777  -84.3959    0.0000 H   0  0  0  0  0  0  0  0  0  0  0  0
   94.3219  -83.2461    0.0000 C   0  0  0  0  0  0  0  0  0  0  0  0
   94.6921  -82.5089    0.0000 H   0  0  0  0  0  0  0  0  0  0  0  0
   93.9516  -82.5089    0.0000 H   0  0  0  0  0  0  0  0  0  0  0  0
   95.0364  -83.6586    0.0000 O   0  0  0  0  0  0  0  0  0  0  0  0
   95.7508  -83.2461    0.0000 C   0  0  0  0  0  0  0  0  0  0  0  0
   96.1211  -82.5089    0.0000 H   0  0  0  0  0  0  0  0  0  0  0  0
   95.3806  -82.5089    0.0000 H   0  0  0  0  0  0  0  0  0  0  0  0
   96.4653  -83.6586    0.0000 O   0  0  0  0  0  0  0  0  0  0  0  0
   97.1798  -83.2461    0.0000 C   0  0  0  0  0  0  0  0  0  0  0  0
   97.5500  -82.5089    0.0000 H   0  0  0  0  0  0  0  0  0  0  0  0
   96.8095  -82.5089    0.0000 H   0  0  0  0  0  0  0  0  0  0  0  0
   97.8942  -83.6586    0.0000 C   0  0  0  0  0  0  0  0  0  0  0  0
   97.5240  -84.3959    0.0000 H   0  0  0  0  0  0  0  0  0  0  0  0
   98.2645  -84.3959    0.0000 H   0  0  0  0  0  0  0  0  0  0  0  0
   98.6087  -83.2461    0.0000 O   0  0  0  0  0  0  0  0  0  0  0  0
   99.3231  -83.6586    0.0000 C   0  0  0  0  0  0  0  0  0  0  0  0
   98.9529  -84.3959    0.0000 H   0  0  0  0  0  0  0  0  0  0  0  0
   99.6934  -84.3959    0.0000 H   0  0  0  0  0  0  0  0  0  0  0  0
  100.0376  -83.2461    0.0000 O   0  0  0  0  0  0  0  0  0  0  0  0
  100.7521  -83.6586    0.0000 C   0  0  0  0  0  0  0  0  0  0  0  0
  100.3819  -84.3959    0.0000 H   0  0  0  0  0  0  0  0  0  0  0  0
  101.1224  -84.3959    0.0000 H   0  0  0  0  0  0  0  0  0  0  0  0
  101.4666  -83.2461    0.0000 C   0  0  0  0  0  0  0  0  0  0  0  0
  101.8368  -82.5089    0.0000 H   0  0  0  0  0  0  0  0  0  0  0  0
  101.0963  -82.5089    0.0000 H   0  0  0  0  0  0  0  0  0  0  0  0
  102.1811  -83.6586    0.0000 O   0  0  0  0  0  0  0  0  0  0  0  0
  102.8955  -83.2461    0.0000 C   0  0  0  0  0  0  0  0  0  0  0  0
  103.2658  -82.5089    0.0000 H   0  0  0  0  0  0  0  0  0  0  0  0
  102.5253  -82.5089    0.0000 H   0  0  0  0  0  0  0  0  0  0  0  0
  103.6100  -83.6586    0.0000 O   0  0  0  0  0  0  0  0  0  0  0  0
  104.3245  -83.2461    0.0000 C   0  0  0  0  0  0  0  0  0  0  0  0
  104.6948  -82.5089    0.0000 H   0  0  0  0  0  0  0  0  0  0  0  0
  103.9542  -82.5089    0.0000 H   0  0  0  0  0  0  0  0  0  0  0  0
  105.0390  -83.6586    0.0000 C   0  0  0  0  0  0  0  0  0  0  0  0
  104.6687  -84.3959    0.0000 H   0  0  0  0  0  0  0  0  0  0  0  0
  105.4092  -84.3959    0.0000 H   0  0  0  0  0  0  0  0  0  0  0  0
  105.7534  -83.2461    0.0000 O   0  0  0  0  0  0  0  0  0  0  0  0
  106.4679  -83.6586    0.0000 C   0  0  0  0  0  0  0  0  0  0  0  0
  106.0976  -84.3959    0.0000 H   0  0  0  0  0  0  0  0  0  0  0  0
  106.8381  -84.3959    0.0000 H   0  0  0  0  0  0  0  0  0  0  0  0
  107.1823  -83.2461    0.0000 O   0  0  0  0  0  0  0  0  0  0  0  0
  107.8968  -83.6586    0.0000 C   0  0  0  0  0  0  0  0  0  0  0  0
  107.5265  -84.3959    0.0000 H   0  0  0  0  0  0  0  0  0  0  0  0
  108.2671  -84.3959    0.0000 H   0  0  0  0  0  0  0  0  0  0  0  0
  108.6113  -83.2461    0.0000 C   0  0  0  0  0  0  0  0  0  0  0  0
  108.9815  -82.5089    0.0000 H   0  0  0  0  0  0  0  0  0  0  0  0
  108.2410  -82.5089    0.0000 H   0  0  0  0  0  0  0  0  0  0  0  0
  109.3258  -83.6586    0.0000 O   0  0  0  0  0  0  0  0  0  0  0  0
  110.0402  -83.2461    0.0000 C   0  0  0  0  0  0  0  0  0  0  0  0
  110.4105  -82.5089    0.0000 H   0  0  0  0  0  0  0  0  0  0  0  0
  109.6700  -82.5089    0.0000 H   0  0  0  0  0  0  0  0  0  0  0  0
  110.7547  -83.6586    0.0000 O   0  0  0  0  0  0  0  0  0  0  0  0
  111.4692  -83.2461    0.0000 O   0  0  0  0  0  0  0  0  0  0  0  0
  112.1837  -83.6586    0.0000 C   0  0  1  0  0  0  0  0  0  0  0  0
  111.4542  -84.0441    0.0000 H   0  0  0  0  0  0  0  0  0  0  0  0
  112.8653  -83.1939    0.0000 O   0  0  0  0  0  0  0  0  0  0  0  0
  113.6537  -83.4371    0.0000 C   0  0  1  0  0  0  0  0  0  0  0  0
  114.4643  -83.5905    0.0000 H   0  0  0  0  0  0  0  0  0  0  0  0
  114.2148  -82.8323    0.0000 C   0  0  0  0  0  0  0  0  0  0  0  0
  114.3513  -82.0187    0.0000 H   0  0  0  0  0  0  0  0  0  0  0  0
  113.6436  -82.2369    0.0000 H   0  0  0  0  0  0  0  0  0  0  0  0
  115.0191  -83.0159    0.0000 O   0  0  0  0  0  0  0  0  0  0  0  0
  115.8098  -82.7806    0.0000 H   0  0  0  0  0  0  0  0  0  0  0  0
  113.9551  -84.2050    0.0000 C   0  0  1  0  0  0  0  0  0  0  0  0
  114.3406  -84.9345    0.0000 H   0  0  0  0  0  0  0  0  0  0  0  0
  114.7778  -84.2667    0.0000 O   0  0  0  0  0  0  0  0  0  0  0  0
  115.6006  -84.3267    0.0000 H   0  0  0  0  0  0  0  0  0  0  0  0
  113.5426  -84.9195    0.0000 C   0  0  1  0  0  0  0  0  0  0  0  0
  113.2127  -85.6757    0.0000 H   0  0  0  0  0  0  0  0  0  0  0  0
  114.0073  -85.6011    0.0000 O   0  0  0  0  0  0  0  0  0  0  0  0
  114.4734  -86.2819    0.0000 H   0  0  0  0  0  0  0  0  0  0  0  0
  112.7268  -85.0425    0.0000 C   0  0  1  0  0  0  0  0  0  0  0  0
  111.9299  -85.2560    0.0000 H   0  0  0  0  0  0  0  0  0  0  0  0
  112.4836  -85.8308    0.0000 O   0  0  0  0  0  0  0  0  0  0  0  0
  112.2420  -86.6196    0.0000 H   0  0  0  0  0  0  0  0  0  0  0  0
  112.1220  -84.4813    0.0000 C   0  0  1  0  0  0  0  0  0  0  0  0
  112.8900  -84.1799    0.0000 H   0  0  0  0  0  0  0  0  0  0  0  0
  111.3540  -84.7827    0.0000 O   0  0  0  0  0  0  0  0  0  0  0  0
  110.5861  -85.0841    0.0000 H   0  0  0  0  0  0  0  0  0  0  0  0
  -51.3502 -129.9366    0.0000 C   0  0  1  0  0  0  0  0  0  0  0  0
  -51.6227 -130.7153    0.0000 H   0  0  0  0  0  0  0  0  0  0  0  0
  -50.8358 -130.5816    0.0000 O   0  0  0  0  0  0  0  0  0  0  0  0
  -50.3201 -131.2256    0.0000 H   0  0  0  0  0  0  0  0  0  0  0  0
  -52.1545 -130.1202    0.0000 C   0  0  1  0  0  0  0  0  0  0  0  0
  -52.9332 -130.3927    0.0000 H   0  0  0  0  0  0  0  0  0  0  0  0
  -52.3381 -130.9245    0.0000 O   0  0  0  0  0  0  0  0  0  0  0  0
  -52.5201 -131.7292    0.0000 H   0  0  0  0  0  0  0  0  0  0  0  0
  -52.7995 -129.6058    0.0000 C   0  0  1  0  0  0  0  0  0  0  0  0
  -53.4980 -129.1669    0.0000 H   0  0  0  0  0  0  0  0  0  0  0  0
  -53.5428 -129.9638    0.0000 O   0  0  0  0  0  0  0  0  0  0  0  0
  -54.2854 -130.3232    0.0000 H   0  0  0  0  0  0  0  0  0  0  0  0
  -52.7995 -128.7808    0.0000 C   0  0  1  0  0  0  0  0  0  0  0  0
  -52.0562 -129.1388    0.0000 H   0  0  0  0  0  0  0  0  0  0  0  0
  -53.5428 -128.4229    0.0000 O   0  0  0  0  0  0  0  0  0  0  0  0
  -54.2861 -128.0649    0.0000 H   0  0  0  0  0  0  0  0  0  0  0  0
  1  2  1  0  0  0  0
  2  3  1  0  0  0  0
  3  4  1  0  0  0  0
  3  5  1  0  0  0  0
  6  3  1  0  0  0  0
  6  7  1  0  0  0  0
  6  8  1  0  0  0  0
  6886  1  1  0  0  0
  9  8  1  0  0  0  0
  9 10  1  0  0  0  0
  9 11  1  0  0  0  0
  9874  1  1  0  0  0
 11 12  1  0  0  0  0
 12 13  1  0  0  0  0
 13 14  1  0  0  0  0
 13 15  1  0  0  0  0
 13 16  1  0  0  0  0
 16 17  1  0  0  0  0
 17 18  1  0  0  0  0
 17 19  1  0  0  0  0
 17 20  1  0  0  0  0
 20 21  1  0  0  0  0
 20 22  1  0  0  0  0
 20 23  1  0  0  0  0
 23 24  1  0  0  0  0
 24 25  1  0  0  0  0
 24 26  1  0  0  0  0
 24 27  1  0  0  0  0
 27 28  1  0  0  0  0
 28 29  1  0  0  0  0
 28 30  1  0  0  0  0
 28 31  1  0  0  0  0
 31 32  1  0  0  0  0
 31 33  1  0  0  0  0
 31 34  1  0  0  0  0
 34 35  1  0  0  0  0
 35 36  1  0  0  0  0
 35 37  1  0  0  0  0
 35 38  1  0  0  0  0
 38 39  1  0  0  0  0
 39 40  1  0  0  0  0
 39 41  1  0  0  0  0
 39 42  1  0  0  0  0
 42 43  1  0  0  0  0
 42 44  1  0  0  0  0
 42 45  1  0  0  0  0
 45 46  1  0  0  0  0
 46 47  1  0  0  0  0
 46 48  1  0  0  0  0
 46 49  1  0  0  0  0
 49 50  1  0  0  0  0
 50 51  1  0  0  0  0
 50 52  1  0  0  0  0
 50 53  1  0  0  0  0
 53 54  1  0  0  0  0
 53 55  1  0  0  0  0
 53 56  1  0  0  0  0
 56 57  1  0  0  0  0
 57 58  1  0  0  0  0
 57 59  1  0  0  0  0
 57 60  1  0  0  0  0
 60 61  1  0  0  0  0
 61 62  1  0  0  0  0
 61 63  1  0  0  0  0
 61 64  1  0  0  0  0
 64 65  1  0  0  0  0
 64 66  1  0  0  0  0
 64 67  1  0  0  0  0
 67 68  1  0  0  0  0
 68 69  1  0  0  0  0
 68 70  1  0  0  0  0
 68 71  1  0  0  0  0
 71 72  1  0  0  0  0
 72 73  1  0  0  0  0
 72 74  1  0  0  0  0
 72 75  1  0  0  0  0
 75 76  1  0  0  0  0
 75 77  1  0  0  0  0
 75 78  1  0  0  0  0
 78 79  1  0  0  0  0
 79 80  1  0  0  0  0
 79 81  1  0  0  0  0
 79 82  1  0  0  0  0
 82 83  1  0  0  0  0
 83 84  1  0  0  0  0
 83 85  1  0  0  0  0
 83 86  1  0  0  0  0
 86 87  1  0  0  0  0
 86 88  1  0  0  0  0
 86 89  1  0  0  0  0
 89 90  1  0  0  0  0
 90 91  1  0  0  0  0
 90 92  1  0  0  0  0
 90 93  1  0  0  0  0
 93 94  1  0  0  0  0
 94 95  1  0  0  0  0
 94 96  1  0  0  0  0
 94 97  1  0  0  0  0
 97 98  1  0  0  0  0
 97 99  1  0  0  0  0
 97100  1  0  0  0  0
100101  1  0  0  0  0
101102  1  0  0  0  0
101103  1  0  0  0  0
101104  1  0  0  0  0
104105  1  0  0  0  0
105106  1  0  0  0  0
105107  1  0  0  0  0
105108  1  0  0  0  0
108109  1  0  0  0  0
108110  1  0  0  0  0
108111  1  0  0  0  0
111112  1  0  0  0  0
112113  1  0  0  0  0
112114  1  0  0  0  0
112115  1  0  0  0  0
115116  1  0  0  0  0
116117  1  0  0  0  0
116118  1  0  0  0  0
116119  1  0  0  0  0
119120  1  0  0  0  0
119121  1  0  0  0  0
119122  1  0  0  0  0
122123  1  0  0  0  0
123124  1  0  0  0  0
123125  1  0  0  0  0
123126  1  0  0  0  0
126127  1  0  0  0  0
127128  1  0  0  0  0
127129  1  0  0  0  0
127130  1  0  0  0  0
130131  1  0  0  0  0
130132  1  0  0  0  0
130133  1  0  0  0  0
133134  1  0  0  0  0
134135  1  0  0  0  0
134136  1  0  0  0  0
134137  1  0  0  0  0
137138  1  0  0  0  0
138139  1  0  0  0  0
138140  1  0  0  0  0
138141  1  0  0  0  0
141142  1  0  0  0  0
141143  1  0  0  0  0
141144  1  0  0  0  0
144145  1  0  0  0  0
145146  1  0  0  0  0
145147  1  0  0  0  0
145148  1  0  0  0  0
148149  1  0  0  0  0
149150  1  0  0  0  0
149151  1  0  0  0  0
149152  1  0  0  0  0
152153  1  0  0  0  0
152154  1  0  0  0  0
152155  1  0  0  0  0
155156  1  0  0  0  0
156157  1  0  0  0  0
156158  1  0  0  0  0
156159  1  0  0  0  0
159160  1  0  0  0  0
160161  1  0  0  0  0
160162  1  0  0  0  0
160163  1  0  0  0  0
163164  1  0  0  0  0
163165  1  0  0  0  0
163166  1  0  0  0  0
166167  1  0  0  0  0
167168  1  0  0  0  0
167169  1  0  0  0  0
167170  1  0  0  0  0
170171  1  0  0  0  0
171172  1  0  0  0  0
171173  1  0  0  0  0
171174  1  0  0  0  0
174175  1  0  0  0  0
174176  1  0  0  0  0
174177  1  0  0  0  0
177178  1  0  0  0  0
178179  1  0  0  0  0
178180  1  0  0  0  0
178181  1  0  0  0  0
181182  1  0  0  0  0
182183  1  0  0  0  0
182184  1  0  0  0  0
182185  1  0  0  0  0
185186  1  0  0  0  0
185187  1  0  0  0  0
185188  1  0  0  0  0
188189  1  0  0  0  0
189190  1  0  0  0  0
189191  1  0  0  0  0
189192  1  0  0  0  0
192193  1  0  0  0  0
193194  1  0  0  0  0
193195  1  0  0  0  0
193196  1  0  0  0  0
196197  1  0  0  0  0
196198  1  0  0  0  0
196199  1  0  0  0  0
199200  1  0  0  0  0
200201  1  0  0  0  0
200202  1  0  0  0  0
200203  1  0  0  0  0
203204  1  0  0  0  0
204205  1  0  0  0  0
204206  1  0  0  0  0
204207  1  0  0  0  0
207208  1  0  0  0  0
207209  1  0  0  0  0
207210  1  0  0  0  0
210211  1  0  0  0  0
211212  1  0  0  0  0
211213  1  0  0  0  0
211214  1  0  0  0  0
214215  1  0  0  0  0
215216  1  0  0  0  0
215217  1  0  0  0  0
215218  1  0  0  0  0
218219  1  0  0  0  0
218220  1  0  0  0  0
218221  1  0  0  0  0
221222  1  0  0  0  0
222223  1  0  0  0  0
222224  1  0  0  0  0
222225  1  0  0  0  0
225226  1  0  0  0  0
226227  1  0  0  0  0
226228  1  0  0  0  0
226229  1  0  0  0  0
229230  1  0  0  0  0
229231  1  0  0  0  0
229232  1  0  0  0  0
232233  1  0  0  0  0
233234  1  0  0  0  0
233235  1  0  0  0  0
233236  1  0  0  0  0
236237  1  0  0  0  0
237238  1  0  0  0  0
237239  1  0  0  0  0
237240  1  0  0  0  0
240241  1  0  0  0  0
240242  1  0  0  0  0
240243  1  0  0  0  0
243244  1  0  0  0  0
244245  1  0  0  0  0
244246  1  0  0  0  0
244247  1  0  0  0  0
247248  1  0  0  0  0
248249  1  0  0  0  0
248250  1  0  0  0  0
248251  1  0  0  0  0
251252  1  0  0  0  0
251253  1  0  0  0  0
251254  1  0  0  0  0
254255  1  0  0  0  0
255256  1  0  0  0  0
255257  1  0  0  0  0
255258  1  0  0  0  0
258259  1  0  0  0  0
259260  1  0  0  0  0
259261  1  0  0  0  0
259262  1  0  0  0  0
262263  1  0  0  0  0
262264  1  0  0  0  0
262265  1  0  0  0  0
265266  1  0  0  0  0
266267  1  0  0  0  0
266268  1  0  0  0  0
266269  1  0  0  0  0
269270  1  0  0  0  0
270271  1  0  0  0  0
270272  1  0  0  0  0
270273  1  0  0  0  0
273274  1  0  0  0  0
273275  1  0  0  0  0
273276  1  0  0  0  0
276277  1  0  0  0  0
277278  1  0  0  0  0
277279  1  0  0  0  0
280277  1  6  0  0  0
280281  1  0  0  0  0
280284  1  0  0  0  0
280579  1  0  0  0  0
281282  1  0  0  0  0
281283  1  0  0  0  0
284285  1  0  0  0  0
284286  1  0  0  0  0
284287  1  0  0  0  0
287288  1  0  0  0  0
288289  1  0  0  0  0
288290  1  0  0  0  0
288291  1  0  0  0  0
291292  1  0  0  0  0
291293  1  0  0  0  0
291294  1  0  0  0  0
294295  1  0  0  0  0
295296  1  0  0  0  0
295297  1  0  0  0  0
295298  1  0  0  0  0
298299  1  0  0  0  0
299300  1  0  0  0  0
299301  1  0  0  0  0
299302  1  0  0  0  0
302303  1  0  0  0  0
302304  1  0  0  0  0
302305  1  0  0  0  0
305306  1  0  0  0  0
306307  1  0  0  0  0
306308  1  0  0  0  0
306309  1  0  0  0  0
309310  1  0  0  0  0
310311  1  0  0  0  0
310312  1  0  0  0  0
310313  1  0  0  0  0
313314  1  0  0  0  0
313315  1  0  0  0  0
313316  1  0  0  0  0
316317  1  0  0  0  0
317318  1  0  0  0  0
317319  1  0  0  0  0
317320  1  0  0  0  0
320321  1  0  0  0  0
321322  1  0  0  0  0
321323  1  0  0  0  0
321324  1  0  0  0  0
324325  1  0  0  0  0
324326  1  0  0  0  0
324327  1  0  0  0  0
327328  1  0  0  0  0
328329  1  0  0  0  0
328330  1  0  0  0  0
328331  1  0  0  0  0
331332  1  0  0  0  0
332333  1  0  0  0  0
332334  1  0  0  0  0
332335  1  0  0  0  0
335336  1  0  0  0  0
335337  1  0  0  0  0
335338  1  0  0  0  0
338339  1  0  0  0  0
339340  1  0  0  0  0
339341  1  0  0  0  0
339342  1  0  0  0  0
342343  1  0  0  0  0
343344  1  0  0  0  0
343345  1  0  0  0  0
343346  1  0  0  0  0
346347  1  0  0  0  0
346348  1  0  0  0  0
346349  1  0  0  0  0
349350  1  0  0  0  0
350351  1  0  0  0  0
350352  1  0  0  0  0
350353  1  0  0  0  0
353354  1  0  0  0  0
354355  1  0  0  0  0
354356  1  0  0  0  0
354357  1  0  0  0  0
357358  1  0  0  0  0
357359  1  0  0  0  0
357360  1  0  0  0  0
360361  1  0  0  0  0
361362  1  0  0  0  0
361363  1  0  0  0  0
361364  1  0  0  0  0
364365  1  0  0  0  0
365366  1  0  0  0  0
365367  1  0  0  0  0
365368  1  0  0  0  0
368369  1  0  0  0  0
368370  1  0  0  0  0
368371  1  0  0  0  0
371372  1  0  0  0  0
372373  1  0  0  0  0
372374  1  0  0  0  0
372375  1  0  0  0  0
375376  1  0  0  0  0
376377  1  0  0  0  0
376378  1  0  0  0  0
376379  1  0  0  0  0
379380  1  0  0  0  0
379381  1  0  0  0  0
379382  1  0  0  0  0
382383  1  0  0  0  0
383384  1  0  0  0  0
383385  1  0  0  0  0
383386  1  0  0  0  0
386387  1  0  0  0  0
387388  1  0  0  0  0
387389  1  0  0  0  0
387390  1  0  0  0  0
390391  1  0  0  0  0
390392  1  0  0  0  0
390393  1  0  0  0  0
393394  1  0  0  0  0
394395  1  0  0  0  0
394396  1  0  0  0  0
394397  1  0  0  0  0
397398  1  0  0  0  0
398399  1  0  0  0  0
398400  1  0  0  0  0
398401  1  0  0  0  0
401402  1  0  0  0  0
401403  1  0  0  0  0
401404  1  0  0  0  0
404405  1  0  0  0  0
405406  1  0  0  0  0
405407  1  0  0  0  0
405408  1  0  0  0  0
408409  1  0  0  0  0
409410  1  0  0  0  0
409411  1  0  0  0  0
409412  1  0  0  0  0
412413  1  0  0  0  0
412414  1  0  0  0  0
412415  1  0  0  0  0
415416  1  0  0  0  0
416417  1  0  0  0  0
416418  1  0  0  0  0
416419  1  0  0  0  0
419420  1  0  0  0  0
420421  1  0  0  0  0
420422  1  0  0  0  0
420423  1  0  0  0  0
423424  1  0  0  0  0
423425  1  0  0  0  0
423426  1  0  0  0  0
426427  1  0  0  0  0
427428  1  0  0  0  0
427429  1  0  0  0  0
427430  1  0  0  0  0
430431  1  0  0  0  0
431432  1  0  0  0  0
431433  1  0  0  0  0
431434  1  0  0  0  0
434435  1  0  0  0  0
434436  1  0  0  0  0
434437  1  0  0  0  0
437438  1  0  0  0  0
438439  1  0  0  0  0
438440  1  0  0  0  0
438441  1  0  0  0  0
441442  1  0  0  0  0
442443  1  0  0  0  0
442444  1  0  0  0  0
442445  1  0  0  0  0
445446  1  0  0  0  0
445447  1  0  0  0  0
445448  1  0  0  0  0
448449  1  0  0  0  0
449450  1  0  0  0  0
449451  1  0  0  0  0
449452  1  0  0  0  0
452453  1  0  0  0  0
453454  1  0  0  0  0
453455  1  0  0  0  0
453456  1  0  0  0  0
456457  1  0  0  0  0
456458  1  0  0  0  0
456459  1  0  0  0  0
459460  1  0  0  0  0
460461  1  0  0  0  0
460462  1  0  0  0  0
460463  1  0  0  0  0
463464  1  0  0  0  0
464465  1  0  0  0  0
464466  1  0  0  0  0
464467  1  0  0  0  0
467468  1  0  0  0  0
467469  1  0  0  0  0
467470  1  0  0  0  0
470471  1  0  0  0  0
471472  1  0  0  0  0
471473  1  0  0  0  0
471474  1  0  0  0  0
474475  1  0  0  0  0
475476  1  0  0  0  0
475477  1  0  0  0  0
475478  1  0  0  0  0
478479  1  0  0  0  0
478480  1  0  0  0  0
478481  1  0  0  0  0
481482  1  0  0  0  0
482483  1  0  0  0  0
482484  1  0  0  0  0
482485  1  0  0  0  0
485486  1  0  0  0  0
486487  1  0  0  0  0
486488  1  0  0  0  0
486489  1  0  0  0  0
489490  1  0  0  0  0
489491  1  0  0  0  0
489492  1  0  0  0  0
492493  1  0  0  0  0
493494  1  0  0  0  0
493495  1  0  0  0  0
493496  1  0  0  0  0
496497  1  0  0  0  0
497498  1  0  0  0  0
497499  1  0  0  0  0
497500  1  0  0  0  0
500501  1  0  0  0  0
500502  1  0  0  0  0
500503  1  0  0  0  0
503504  1  0  0  0  0
504505  1  0  0  0  0
504506  1  0  0  0  0
504507  1  0  0  0  0
507508  1  0  0  0  0
508509  1  0  0  0  0
508510  1  0  0  0  0
508511  1  0  0  0  0
511512  1  0  0  0  0
511513  1  0  0  0  0
511514  1  0  0  0  0
514515  1  0  0  0  0
515516  1  0  0  0  0
515517  1  0  0  0  0
515518  1  0  0  0  0
518519  1  0  0  0  0
519520  1  0  0  0  0
519521  1  0  0  0  0
519522  1  0  0  0  0
522523  1  0  0  0  0
522524  1  0  0  0  0
522525  1  0  0  0  0
525526  1  0  0  0  0
526527  1  0  0  0  0
526528  1  0  0  0  0
526529  1  0  0  0  0
529530  1  0  0  0  0
530531  1  0  0  0  0
530532  1  0  0  0  0
530533  1  0  0  0  0
533534  1  0  0  0  0
533535  1  0  0  0  0
533536  1  0  0  0  0
536537  1  0  0  0  0
537538  1  0  0  0  0
537539  1  0  0  0  0
537540  1  0  0  0  0
540541  1  0  0  0  0
541542  1  0  0  0  0
541543  1  0  0  0  0
541544  1  0  0  0  0
544545  1  0  0  0  0
544546  1  0  0  0  0
544547  1  0  0  0  0
547548  1  0  0  0  0
548549  1  0  0  0  0
548550  1  0  0  0  0
548551  1  0  0  0  0
551552  1  0  0  0  0
553552  1  0  0  0  0
553554  1  0  0  0  0
553555  1  0  0  0  0
553575  1  1  0  0  0
556555  1  0  0  0  0
556557  1  0  0  0  0
556558  1  0  0  0  0
556563  1  1  0  0  0
558559  1  0  0  0  0
558560  1  0  0  0  0
558561  1  0  0  0  0
561562  1  0  0  0  0
563564  1  0  0  0  0
563565  1  0  0  0  0
563567  1  1  0  0  0
565566  1  0  0  0  0
567568  1  0  0  0  0
567569  1  0  0  0  0
567571  1  1  0  0  0
569570  1  0  0  0  0
571572  1  0  0  0  0
571573  1  0  0  0  0
571575  1  1  0  0  0
573574  1  0  0  0  0
575576  1  6  0  0  0
575577  1  0  0  0  0
577578  1  0  0  0  0
579580  1  0  0  0  0
579581  1  0  0  0  0
579582  1  0  0  0  0
582583  1  0  0  0  0
583584  1  0  0  0  0
583585  1  0  0  0  0
583586  1  0  0  0  0
586587  1  0  0  0  0
586588  1  0  0  0  0
586589  1  0  0  0  0
589590  1  0  0  0  0
590591  1  0  0  0  0
590592  1  0  0  0  0
590593  1  0  0  0  0
593594  1  0  0  0  0
594595  1  0  0  0  0
594596  1  0  0  0  0
594597  1  0  0  0  0
597598  1  0  0  0  0
597599  1  0  0  0  0
597600  1  0  0  0  0
600601  1  0  0  0  0
601602  1  0  0  0  0
601603  1  0  0  0  0
601604  1  0  0  0  0
604605  1  0  0  0  0
605606  1  0  0  0  0
605607  1  0  0  0  0
605608  1  0  0  0  0
608609  1  0  0  0  0
608610  1  0  0  0  0
608611  1  0  0  0  0
611612  1  0  0  0  0
612613  1  0  0  0  0
612614  1  0  0  0  0
612615  1  0  0  0  0
615616  1  0  0  0  0
616617  1  0  0  0  0
616618  1  0  0  0  0
616619  1  0  0  0  0
619620  1  0  0  0  0
619621  1  0  0  0  0
619622  1  0  0  0  0
622623  1  0  0  0  0
623624  1  0  0  0  0
623625  1  0  0  0  0
623626  1  0  0  0  0
626627  1  0  0  0  0
627628  1  0  0  0  0
627629  1  0  0  0  0
627630  1  0  0  0  0
630631  1  0  0  0  0
630632  1  0  0  0  0
630633  1  0  0  0  0
633634  1  0  0  0  0
634635  1  0  0  0  0
634636  1  0  0  0  0
634637  1  0  0  0  0
637638  1  0  0  0  0
638639  1  0  0  0  0
638640  1  0  0  0  0
638641  1  0  0  0  0
641642  1  0  0  0  0
641643  1  0  0  0  0
641644  1  0  0  0  0
644645  1  0  0  0  0
645646  1  0  0  0  0
645647  1  0  0  0  0
645648  1  0  0  0  0
648649  1  0  0  0  0
649650  1  0  0  0  0
649651  1  0  0  0  0
649652  1  0  0  0  0
652653  1  0  0  0  0
652654  1  0  0  0  0
652655  1  0  0  0  0
655656  1  0  0  0  0
656657  1  0  0  0  0
656658  1  0  0  0  0
656659  1  0  0  0  0
659660  1  0  0  0  0
660661  1  0  0  0  0
660662  1  0  0  0  0
660663  1  0  0  0  0
663664  1  0  0  0  0
663665  1  0  0  0  0
663666  1  0  0  0  0
666667  1  0  0  0  0
667668  1  0  0  0  0
667669  1  0  0  0  0
667670  1  0  0  0  0
670671  1  0  0  0  0
671672  1  0  0  0  0
671673  1  0  0  0  0
671674  1  0  0  0  0
674675  1  0  0  0  0
674676  1  0  0  0  0
674677  1  0  0  0  0
677678  1  0  0  0  0
678679  1  0  0  0  0
678680  1  0  0  0  0
678681  1  0  0  0  0
681682  1  0  0  0  0
682683  1  0  0  0  0
682684  1  0  0  0  0
682685  1  0  0  0  0
685686  1  0  0  0  0
685687  1  0  0  0  0
685688  1  0  0  0  0
688689  1  0  0  0  0
689690  1  0  0  0  0
689691  1  0  0  0  0
689692  1  0  0  0  0
692693  1  0  0  0  0
693694  1  0  0  0  0
693695  1  0  0  0  0
693696  1  0  0  0  0
696697  1  0  0  0  0
696698  1  0  0  0  0
696699  1  0  0  0  0
699700  1  0  0  0  0
700701  1  0  0  0  0
700702  1  0  0  0  0
700703  1  0  0  0  0
703704  1  0  0  0  0
704705  1  0  0  0  0
704706  1  0  0  0  0
704707  1  0  0  0  0
707708  1  0  0  0  0
707709  1  0  0  0  0
707710  1  0  0  0  0
710711  1  0  0  0  0
711712  1  0  0  0  0
711713  1  0  0  0  0
711714  1  0  0  0  0
714715  1  0  0  0  0
715716  1  0  0  0  0
715717  1  0  0  0  0
715718  1  0  0  0  0
718719  1  0  0  0  0
718720  1  0  0  0  0
718721  1  0  0  0  0
721722  1  0  0  0  0
722723  1  0  0  0  0
722724  1  0  0  0  0
722725  1  0  0  0  0
725726  1  0  0  0  0
726727  1  0  0  0  0
726728  1  0  0  0  0
726729  1  0  0  0  0
729730  1  0  0  0  0
729731  1  0  0  0  0
729732  1  0  0  0  0
732733  1  0  0  0  0
733734  1  0  0  0  0
733735  1  0  0  0  0
733736  1  0  0  0  0
736737  1  0  0  0  0
737738  1  0  0  0  0
737739  1  0  0  0  0
737740  1  0  0  0  0
740741  1  0  0  0  0
740742  1  0  0  0  0
740743  1  0  0  0  0
743744  1  0  0  0  0
744745  1  0  0  0  0
744746  1  0  0  0  0
744747  1  0  0  0  0
747748  1  0  0  0  0
748749  1  0  0  0  0
748750  1  0  0  0  0
748751  1  0  0  0  0
751752  1  0  0  0  0
751753  1  0  0  0  0
751754  1  0  0  0  0
754755  1  0  0  0  0
755756  1  0  0  0  0
755757  1  0  0  0  0
755758  1  0  0  0  0
758759  1  0  0  0  0
759760  1  0  0  0  0
759761  1  0  0  0  0
759762  1  0  0  0  0
762763  1  0  0  0  0
762764  1  0  0  0  0
762765  1  0  0  0  0
765766  1  0  0  0  0
766767  1  0  0  0  0
766768  1  0  0  0  0
766769  1  0  0  0  0
769770  1  0  0  0  0
770771  1  0  0  0  0
770772  1  0  0  0  0
770773  1  0  0  0  0
773774  1  0  0  0  0
773775  1  0  0  0  0
773776  1  0  0  0  0
776777  1  0  0  0  0
777778  1  0  0  0  0
777779  1  0  0  0  0
777780  1  0  0  0  0
780781  1  0  0  0  0
781782  1  0  0  0  0
781783  1  0  0  0  0
781784  1  0  0  0  0
784785  1  0  0  0  0
784786  1  0  0  0  0
784787  1  0  0  0  0
787788  1  0  0  0  0
788789  1  0  0  0  0
788790  1  0  0  0  0
788791  1  0  0  0  0
791792  1  0  0  0  0
792793  1  0  0  0  0
792794  1  0  0  0  0
792795  1  0  0  0  0
795796  1  0  0  0  0
795797  1  0  0  0  0
795798  1  0  0  0  0
798799  1  0  0  0  0
799800  1  0  0  0  0
799801  1  0  0  0  0
799802  1  0  0  0  0
802803  1  0  0  0  0
803804  1  0  0  0  0
803805  1  0  0  0  0
803806  1  0  0  0  0
806807  1  0  0  0  0
806808  1  0  0  0  0
806809  1  0  0  0  0
809810  1  0  0  0  0
810811  1  0  0  0  0
810812  1  0  0  0  0
810813  1  0  0  0  0
813814  1  0  0  0  0
814815  1  0  0  0  0
814816  1  0  0  0  0
814817  1  0  0  0  0
817818  1  0  0  0  0
817819  1  0  0  0  0
817820  1  0  0  0  0
820821  1  0  0  0  0
821822  1  0  0  0  0
821823  1  0  0  0  0
821824  1  0  0  0  0
824825  1  0  0  0  0
825826  1  0  0  0  0
825827  1  0  0  0  0
825828  1  0  0  0  0
828829  1  0  0  0  0
828830  1  0  0  0  0
828831  1  0  0  0  0
831832  1  0  0  0  0
832833  1  0  0  0  0
832834  1  0  0  0  0
832835  1  0  0  0  0
835836  1  0  0  0  0
836837  1  0  0  0  0
836838  1  0  0  0  0
836839  1  0  0  0  0
839840  1  0  0  0  0
839841  1  0  0  0  0
839842  1  0  0  0  0
842843  1  0  0  0  0
843844  1  0  0  0  0
843845  1  0  0  0  0
843846  1  0  0  0  0
846847  1  0  0  0  0
848847  1  0  0  0  0
848849  1  0  0  0  0
848850  1  0  0  0  0
848870  1  1  0  0  0
851850  1  0  0  0  0
851852  1  0  0  0  0
851853  1  0  0  0  0
851858  1  1  0  0  0
853854  1  0  0  0  0
853855  1  0  0  0  0
853856  1  0  0  0  0
856857  1  0  0  0  0
858859  1  0  0  0  0
858860  1  0  0  0  0
858862  1  1  0  0  0
860861  1  0  0  0  0
862863  1  0  0  0  0
862864  1  0  0  0  0
862866  1  1  0  0  0
864865  1  0  0  0  0
866867  1  0  0  0  0
866868  1  0  0  0  0
866870  1  1  0  0  0
868869  1  0  0  0  0
870871  1  6  0  0  0
870872  1  0  0  0  0
872873  1  0  0  0  0
874875  1  0  0  0  0
874876  1  0  0  0  0
874878  1  1  0  0  0
876877  1  0  0  0  0
878879  1  0  0  0  0
878880  1  0  0  0  0
878882  1  1  0  0  0
880881  1  0  0  0  0
882883  1  0  0  0  0
882884  1  0  0  0  0
882886  1  1  0  0  0
884885  1  0  0  0  0
886887  1  6  0  0  0
886888  1  0  0  0  0
888889  1  0  0  0  0
M  END
$$$$
