lig
  Mrv15b2301222603182D          

410412  0  0  0  0            999 V2000
  -65.9695  -77.0902    0.0000 O   0  0  0  0  0  0  0  0  0  0  0  0
  -65.1812  -77.3334    0.0000 C   0  0  0  0  0  0  0  0  0  0  0  0
  -64.9976  -78.1377    0.0000 C   0  0  0  0  0  0  0  0  0  0  0  0
  -64.1933  -78.3213    0.0000 O   0  0  0  0  0  0  0  0  0  0  0  0
  -63.8353  -79.0646    0.0000 C   0  0  0  0  0  0  0  0  0  0  0  0
  -63.0103  -79.0646    0.0000 O   0  0  0  0  0  0  0  0  0  0  0  0
  -62.5978  -78.3501    0.0000 O   0  0  0  0  0  0  0  0  0  0  0  0
  -61.7728  -78.3501    0.0000 C   0  0  0  0  0  0  0  0  0  0  0  0
  -61.3603  -77.6356    0.0000 O   0  0  0  0  0  0  0  0  0  0  0  0
  -60.5353  -77.6356    0.0000 C   0  0  0  0  0  0  0  0  0  0  0  0
  -60.1228  -76.9211    0.0000 C   0  0  0  0  0  0  0  0  0  0  0  0
  -59.2978  -76.9211    0.0000 O   0  0  0  0  0  0  0  0  0  0  0  0
  -58.8853  -76.2067    0.0000 C   0  0  0  0  0  0  0  0  0  0  0  0
  -58.0603  -76.2067    0.0000 O   0  0  0  0  0  0  0  0  0  0  0  0
  -57.6478  -75.4922    0.0000 C   0  0  0  0  0  0  0  0  0  0  0  0
  -56.8228  -75.4922    0.0000 C   0  0  0  0  0  0  0  0  0  0  0  0
  -56.4103  -74.7777    0.0000 O   0  0  0  0  0  0  0  0  0  0  0  0
  -55.5853  -74.7777    0.0000 C   0  0  0  0  0  0  0  0  0  0  0  0
  -55.1728  -74.0633    0.0000 O   0  0  0  0  0  0  0  0  0  0  0  0
  -54.3478  -74.0633    0.0000 C   0  0  0  0  0  0  0  0  0  0  0  0
  -53.9353  -73.3488    0.0000 C   0  0  0  0  0  0  0  0  0  0  0  0
  -53.1103  -73.3488    0.0000 O   0  0  0  0  0  0  0  0  0  0  0  0
  -52.6978  -72.6343    0.0000 C   0  0  0  0  0  0  0  0  0  0  0  0
  -51.8728  -72.6343    0.0000 O   0  0  0  0  0  0  0  0  0  0  0  0
  -51.4603  -71.9198    0.0000 C   0  0  0  0  0  0  0  0  0  0  0  0
  -50.6353  -71.9198    0.0000 C   0  0  0  0  0  0  0  0  0  0  0  0
  -50.2228  -71.2054    0.0000 O   0  0  0  0  0  0  0  0  0  0  0  0
  -49.3978  -71.2054    0.0000 C   0  0  0  0  0  0  0  0  0  0  0  0
  -48.9853  -70.4909    0.0000 O   0  0  0  0  0  0  0  0  0  0  0  0
  -48.1603  -70.4909    0.0000 C   0  0  0  0  0  0  0  0  0  0  0  0
  -47.7478  -69.7764    0.0000 C   0  0  0  0  0  0  0  0  0  0  0  0
  -46.9228  -69.7764    0.0000 O   0  0  0  0  0  0  0  0  0  0  0  0
  -46.5103  -69.0620    0.0000 C   0  0  0  0  0  0  0  0  0  0  0  0
  -45.6853  -69.0620    0.0000 O   0  0  0  0  0  0  0  0  0  0  0  0
  -45.2728  -68.3475    0.0000 C   0  0  0  0  0  0  0  0  0  0  0  0
  -44.4478  -68.3475    0.0000 C   0  0  0  0  0  0  0  0  0  0  0  0
  -44.0353  -67.6330    0.0000 O   0  0  0  0  0  0  0  0  0  0  0  0
  -43.2103  -67.6330    0.0000 C   0  0  0  0  0  0  0  0  0  0  0  0
  -42.7978  -66.9185    0.0000 O   0  0  0  0  0  0  0  0  0  0  0  0
  -41.9728  -66.9185    0.0000 C   0  0  0  0  0  0  0  0  0  0  0  0
  -41.5603  -66.2041    0.0000 C   0  0  0  0  0  0  0  0  0  0  0  0
  -40.7353  -66.2041    0.0000 O   0  0  0  0  0  0  0  0  0  0  0  0
  -40.3228  -65.4896    0.0000 C   0  0  0  0  0  0  0  0  0  0  0  0
  -39.4978  -65.4896    0.0000 O   0  0  0  0  0  0  0  0  0  0  0  0
  -39.0853  -64.7751    0.0000 C   0  0  0  0  0  0  0  0  0  0  0  0
  -38.2603  -64.7751    0.0000 C   0  0  0  0  0  0  0  0  0  0  0  0
  -37.8478  -64.0607    0.0000 O   0  0  0  0  0  0  0  0  0  0  0  0
  -37.0228  -64.0607    0.0000 C   0  0  0  0  0  0  0  0  0  0  0  0
  -36.6103  -63.3462    0.0000 O   0  0  0  0  0  0  0  0  0  0  0  0
  -35.7853  -63.3462    0.0000 C   0  0  0  0  0  0  0  0  0  0  0  0
  -35.3728  -62.6317    0.0000 C   0  0  0  0  0  0  0  0  0  0  0  0
  -34.5478  -62.6317    0.0000 O   0  0  0  0  0  0  0  0  0  0  0  0
  -34.1353  -61.9172    0.0000 C   0  0  0  0  0  0  0  0  0  0  0  0
  -33.3103  -61.9172    0.0000 O   0  0  0  0  0  0  0  0  0  0  0  0
  -32.8978  -61.2028    0.0000 C   0  0  0  0  0  0  0  0  0  0  0  0
  -32.0728  -61.2028    0.0000 C   0  0  0  0  0  0  0  0  0  0  0  0
  -31.6603  -60.4883    0.0000 O   0  0  0  0  0  0  0  0  0  0  0  0
  -30.8353  -60.4883    0.0000 C   0  0  0  0  0  0  0  0  0  0  0  0
  -30.4228  -59.7738    0.0000 O   0  0  0  0  0  0  0  0  0  0  0  0
  -29.5978  -59.7738    0.0000 C   0  0  0  0  0  0  0  0  0  0  0  0
  -29.1853  -59.0594    0.0000 C   0  0  0  0  0  0  0  0  0  0  0  0
  -28.3603  -59.0594    0.0000 O   0  0  0  0  0  0  0  0  0  0  0  0
  -27.9478  -58.3449    0.0000 C   0  0  0  0  0  0  0  0  0  0  0  0
  -27.1228  -58.3449    0.0000 O   0  0  0  0  0  0  0  0  0  0  0  0
  -26.7103  -57.6304    0.0000 C   0  0  0  0  0  0  0  0  0  0  0  0
  -25.8853  -57.6304    0.0000 C   0  0  0  0  0  0  0  0  0  0  0  0
  -25.4728  -56.9160    0.0000 O   0  0  0  0  0  0  0  0  0  0  0  0
  -24.6478  -56.9160    0.0000 C   0  0  0  0  0  0  0  0  0  0  0  0
  -24.2353  -56.2015    0.0000 O   0  0  0  0  0  0  0  0  0  0  0  0
  -23.4103  -56.2015    0.0000 C   0  0  0  0  0  0  0  0  0  0  0  0
  -22.9978  -55.4870    0.0000 C   0  0  0  0  0  0  0  0  0  0  0  0
  -22.1728  -55.4870    0.0000 O   0  0  0  0  0  0  0  0  0  0  0  0
  -21.7603  -54.7725    0.0000 C   0  0  0  0  0  0  0  0  0  0  0  0
  -20.9353  -54.7725    0.0000 O   0  0  0  0  0  0  0  0  0  0  0  0
  -20.5228  -54.0581    0.0000 C   0  0  0  0  0  0  0  0  0  0  0  0
  -19.6978  -54.0581    0.0000 C   0  0  0  0  0  0  0  0  0  0  0  0
  -19.2853  -53.3436    0.0000 O   0  0  0  0  0  0  0  0  0  0  0  0
  -18.4603  -53.3436    0.0000 C   0  0  0  0  0  0  0  0  0  0  0  0
  -18.0478  -52.6291    0.0000 O   0  0  0  0  0  0  0  0  0  0  0  0
  -17.2228  -52.6291    0.0000 C   0  0  0  0  0  0  0  0  0  0  0  0
  -16.8103  -51.9147    0.0000 C   0  0  0  0  0  0  0  0  0  0  0  0
  -15.9853  -51.9147    0.0000 O   0  0  0  0  0  0  0  0  0  0  0  0
  -15.5728  -51.2002    0.0000 C   0  0  0  0  0  0  0  0  0  0  0  0
  -14.7478  -51.2002    0.0000 O   0  0  0  0  0  0  0  0  0  0  0  0
  -14.3353  -50.4857    0.0000 C   0  0  0  0  0  0  0  0  0  0  0  0
  -13.5103  -50.4857    0.0000 C   0  0  0  0  0  0  0  0  0  0  0  0
  -13.0978  -49.7712    0.0000 O   0  0  0  0  0  0  0  0  0  0  0  0
  -12.2728  -49.7712    0.0000 C   0  0  0  0  0  0  0  0  0  0  0  0
  -11.8603  -49.0568    0.0000 O   0  0  0  0  0  0  0  0  0  0  0  0
  -11.0353  -49.0568    0.0000 C   0  0  0  0  0  0  0  0  0  0  0  0
  -10.6228  -48.3423    0.0000 C   0  0  0  0  0  0  0  0  0  0  0  0
   -9.7978  -48.3423    0.0000 O   0  0  0  0  0  0  0  0  0  0  0  0
   -9.3853  -47.6278    0.0000 C   0  0  0  0  0  0  0  0  0  0  0  0
   -8.5603  -47.6278    0.0000 O   0  0  0  0  0  0  0  0  0  0  0  0
   -8.1478  -46.9134    0.0000 C   0  0  0  0  0  0  0  0  0  0  0  0
   -7.3228  -46.9134    0.0000 C   0  0  0  0  0  0  0  0  0  0  0  0
   -6.9103  -46.1989    0.0000 O   0  0  0  0  0  0  0  0  0  0  0  0
   -6.0853  -46.1989    0.0000 C   0  0  0  0  0  0  0  0  0  0  0  0
   -5.6728  -45.4844    0.0000 O   0  0  0  0  0  0  0  0  0  0  0  0
   -4.8478  -45.4844    0.0000 C   0  0  0  0  0  0  0  0  0  0  0  0
   -4.4353  -44.7699    0.0000 C   0  0  0  0  0  0  0  0  0  0  0  0
   -3.6103  -44.7699    0.0000 O   0  0  0  0  0  0  0  0  0  0  0  0
   -3.1978  -44.0555    0.0000 C   0  0  0  0  0  0  0  0  0  0  0  0
   -2.3728  -44.0555    0.0000 O   0  0  0  0  0  0  0  0  0  0  0  0
   -1.9603  -43.3410    0.0000 C   0  0  0  0  0  0  0  0  0  0  0  0
   -1.1353  -43.3410    0.0000 C   0  0  0  0  0  0  0  0  0  0  0  0
   -0.7228  -42.6265    0.0000 O   0  0  0  0  0  0  0  0  0  0  0  0
    0.1022  -42.6265    0.0000 C   0  0  0  0  0  0  0  0  0  0  0  0
    0.5147  -41.9121    0.0000 O   0  0  0  0  0  0  0  0  0  0  0  0
    1.3397  -41.9121    0.0000 C   0  0  0  0  0  0  0  0  0  0  0  0
    1.7522  -41.1976    0.0000 C   0  0  0  0  0  0  0  0  0  0  0  0
    2.5772  -41.1976    0.0000 O   0  0  0  0  0  0  0  0  0  0  0  0
    2.9897  -40.4831    0.0000 C   0  0  0  0  0  0  0  0  0  0  0  0
    3.8147  -40.4831    0.0000 O   0  0  0  0  0  0  0  0  0  0  0  0
    4.2272  -39.7687    0.0000 C   0  0  0  0  0  0  0  0  0  0  0  0
    5.0522  -39.7687    0.0000 C   0  0  0  0  0  0  0  0  0  0  0  0
    5.4647  -39.0542    0.0000 O   0  0  0  0  0  0  0  0  0  0  0  0
    6.2897  -39.0542    0.0000 C   0  0  0  0  0  0  0  0  0  0  0  0
    6.7022  -38.3397    0.0000 O   0  0  0  0  0  0  0  0  0  0  0  0
    7.5272  -38.3397    0.0000 C   0  0  0  0  0  0  0  0  0  0  0  0
    7.9397  -37.6252    0.0000 C   0  0  0  0  0  0  0  0  0  0  0  0
    8.7647  -37.6252    0.0000 O   0  0  0  0  0  0  0  0  0  0  0  0
    9.1772  -36.9108    0.0000 C   0  0  0  0  0  0  0  0  0  0  0  0
   10.0022  -36.9108    0.0000 O   0  0  0  0  0  0  0  0  0  0  0  0
   10.4147  -36.1963    0.0000 C   0  0  0  0  0  0  0  0  0  0  0  0
   11.2397  -36.1963    0.0000 C   0  0  0  0  0  0  0  0  0  0  0  0
   11.6522  -35.4818    0.0000 O   0  0  0  0  0  0  0  0  0  0  0  0
   12.4772  -35.4818    0.0000 C   0  0  0  0  0  0  0  0  0  0  0  0
   12.8897  -34.7674    0.0000 C   0  0  0  0  0  0  0  0  0  0  0  0
   13.6041  -35.1799    0.0000 N   0  0  0  0  0  0  0  0  0  0  0  0
   13.3022  -34.0529    0.0000 C   0  0  0  0  0  0  0  0  0  0  0  0
   14.1272  -34.0529    0.0000 O   0  0  0  0  0  0  0  0  0  0  0  0
   14.5397  -34.7674    0.0000 C   0  0  0  0  0  0  0  0  0  0  0  0
   14.1272  -35.4818    0.0000 C   0  0  0  0  0  0  0  0  0  0  0  0
   14.5397  -36.1963    0.0000 O   0  0  0  0  0  0  0  0  0  0  0  0
   14.1272  -36.9108    0.0000 C   0  0  0  0  0  0  0  0  0  0  0  0
   14.5397  -37.6252    0.0000 O   0  0  0  0  0  0  0  0  0  0  0  0
   14.1272  -38.3397    0.0000 C   0  0  0  0  0  0  0  0  0  0  0  0
   14.5397  -39.0542    0.0000 C   0  0  0  0  0  0  0  0  0  0  0  0
   14.1272  -39.7687    0.0000 O   0  0  0  0  0  0  0  0  0  0  0  0
   14.5397  -40.4831    0.0000 C   0  0  0  0  0  0  0  0  0  0  0  0
   14.1272  -41.1976    0.0000 O   0  0  0  0  0  0  0  0  0  0  0  0
   14.5397  -41.9121    0.0000 C   0  0  0  0  0  0  0  0  0  0  0  0
   14.1272  -42.6265    0.0000 C   0  0  0  0  0  0  0  0  0  0  0  0
   14.5397  -43.3410    0.0000 O   0  0  0  0  0  0  0  0  0  0  0  0
   14.1272  -44.0555    0.0000 C   0  0  0  0  0  0  0  0  0  0  0  0
   14.5397  -44.7699    0.0000 O   0  0  0  0  0  0  0  0  0  0  0  0
   14.1272  -45.4844    0.0000 C   0  0  0  0  0  0  0  0  0  0  0  0
   14.5397  -46.1989    0.0000 C   0  0  0  0  0  0  0  0  0  0  0  0
   14.1272  -46.9134    0.0000 O   0  0  0  0  0  0  0  0  0  0  0  0
   14.5397  -47.6278    0.0000 C   0  0  0  0  0  0  0  0  0  0  0  0
   14.1272  -48.3423    0.0000 O   0  0  0  0  0  0  0  0  0  0  0  0
   14.5397  -49.0568    0.0000 C   0  0  0  0  0  0  0  0  0  0  0  0
   14.1272  -49.7712    0.0000 C   0  0  0  0  0  0  0  0  0  0  0  0
   14.5397  -50.4857    0.0000 O   0  0  0  0  0  0  0  0  0  0  0  0
   14.1272  -51.2002    0.0000 C   0  0  0  0  0  0  0  0  0  0  0  0
   14.5397  -51.9147    0.0000 O   0  0  0  0  0  0  0  0  0  0  0  0
   14.1272  -52.6291    0.0000 C   0  0  0  0  0  0  0  0  0  0  0  0
   14.5397  -53.3436    0.0000 C   0  0  0  0  0  0  0  0  0  0  0  0
   14.1272  -54.0581    0.0000 O   0  0  0  0  0  0  0  0  0  0  0  0
   14.5397  -54.7725    0.0000 C   0  0  0  0  0  0  0  0  0  0  0  0
   14.1272  -55.4870    0.0000 O   0  0  0  0  0  0  0  0  0  0  0  0
   14.5397  -56.2015    0.0000 C   0  0  0  0  0  0  0  0  0  0  0  0
   14.1272  -56.9160    0.0000 C   0  0  0  0  0  0  0  0  0  0  0  0
   14.5397  -57.6304    0.0000 O   0  0  0  0  0  0  0  0  0  0  0  0
   14.1272  -58.3449    0.0000 C   0  0  0  0  0  0  0  0  0  0  0  0
   14.5397  -59.0594    0.0000 O   0  0  0  0  0  0  0  0  0  0  0  0
   14.1272  -59.7738    0.0000 C   0  0  0  0  0  0  0  0  0  0  0  0
   14.5397  -60.4883    0.0000 C   0  0  0  0  0  0  0  0  0  0  0  0
   14.1272  -61.2028    0.0000 O   0  0  0  0  0  0  0  0  0  0  0  0
   14.5397  -61.9172    0.0000 C   0  0  0  0  0  0  0  0  0  0  0  0
   14.1272  -62.6317    0.0000 O   0  0  0  0  0  0  0  0  0  0  0  0
   14.5397  -63.3462    0.0000 C   0  0  0  0  0  0  0  0  0  0  0  0
   14.1272  -64.0607    0.0000 C   0  0  0  0  0  0  0  0  0  0  0  0
   14.5397  -64.7751    0.0000 O   0  0  0  0  0  0  0  0  0  0  0  0
   14.1272  -65.4896    0.0000 C   0  0  0  0  0  0  0  0  0  0  0  0
   14.5397  -66.2041    0.0000 O   0  0  0  0  0  0  0  0  0  0  0  0
   14.1272  -66.9185    0.0000 C   0  0  0  0  0  0  0  0  0  0  0  0
   14.5397  -67.6330    0.0000 C   0  0  0  0  0  0  0  0  0  0  0  0
   14.1272  -68.3475    0.0000 O   0  0  0  0  0  0  0  0  0  0  0  0
   14.5397  -69.0620    0.0000 C   0  0  0  0  0  0  0  0  0  0  0  0
   14.1272  -69.7764    0.0000 O   0  0  0  0  0  0  0  0  0  0  0  0
   14.5397  -70.4909    0.0000 C   0  0  0  0  0  0  0  0  0  0  0  0
   14.1272  -71.2054    0.0000 C   0  0  0  0  0  0  0  0  0  0  0  0
   14.5397  -71.9198    0.0000 O   0  0  0  0  0  0  0  0  0  0  0  0
   14.1272  -72.6343    0.0000 C   0  0  0  0  0  0  0  0  0  0  0  0
   14.5397  -73.3488    0.0000 O   0  0  0  0  0  0  0  0  0  0  0  0
   14.1272  -74.0633    0.0000 C   0  0  0  0  0  0  0  0  0  0  0  0
   14.5397  -74.7777    0.0000 C   0  0  0  0  0  0  0  0  0  0  0  0
   14.1272  -75.4922    0.0000 O   0  0  0  0  0  0  0  0  0  0  0  0
   14.5397  -76.2067    0.0000 C   0  0  0  0  0  0  0  0  0  0  0  0
   14.1272  -76.9211    0.0000 O   0  0  0  0  0  0  0  0  0  0  0  0
   14.5397  -77.6356    0.0000 C   0  0  0  0  0  0  0  0  0  0  0  0
   14.1272  -78.3501    0.0000 C   0  0  0  0  0  0  0  0  0  0  0  0
   14.5397  -79.0646    0.0000 O   0  0  0  0  0  0  0  0  0  0  0  0
   14.1272  -79.7790    0.0000 C   0  0  0  0  0  0  0  0  0  0  0  0
   14.5397  -80.4935    0.0000 O   0  0  0  0  0  0  0  0  0  0  0  0
   14.1272  -81.2080    0.0000 C   0  0  0  0  0  0  0  0  0  0  0  0
   14.5397  -81.9224    0.0000 C   0  0  0  0  0  0  0  0  0  0  0  0
   14.1272  -82.6369    0.0000 O   0  0  0  0  0  0  0  0  0  0  0  0
   14.5397  -83.3514    0.0000 C   0  0  0  0  0  0  0  0  0  0  0  0
   14.1272  -84.0658    0.0000 O   0  0  0  0  0  0  0  0  0  0  0  0
   14.5397  -84.7803    0.0000 C   0  0  0  0  0  0  0  0  0  0  0  0
   14.1272  -85.4948    0.0000 C   0  0  0  0  0  0  0  0  0  0  0  0
   14.5397  -86.2093    0.0000 O   0  0  0  0  0  0  0  0  0  0  0  0
   14.1272  -86.9237    0.0000 C   0  0  0  0  0  0  0  0  0  0  0  0
   14.5397  -87.6382    0.0000 O   0  0  0  0  0  0  0  0  0  0  0  0
   14.1272  -88.3527    0.0000 C   0  0  0  0  0  0  0  0  0  0  0  0
   14.5397  -89.0671    0.0000 C   0  0  0  0  0  0  0  0  0  0  0  0
   14.1272  -89.7816    0.0000 O   0  0  0  0  0  0  0  0  0  0  0  0
   14.5397  -90.4961    0.0000 C   0  0  0  0  0  0  0  0  0  0  0  0
   14.1272  -91.2106    0.0000 O   0  0  0  0  0  0  0  0  0  0  0  0
   14.5397  -91.9250    0.0000 C   0  0  0  0  0  0  0  0  0  0  0  0
   14.1272  -92.6395    0.0000 C   0  0  0  0  0  0  0  0  0  0  0  0
   14.5397  -93.3540    0.0000 O   0  0  0  0  0  0  0  0  0  0  0  0
   14.1272  -94.0684    0.0000 C   0  0  0  0  0  0  0  0  0  0  0  0
   14.5397  -94.7829    0.0000 O   0  0  0  0  0  0  0  0  0  0  0  0
   14.1272  -95.4974    0.0000 C   0  0  0  0  0  0  0  0  0  0  0  0
   14.5397  -96.2119    0.0000 C   0  0  0  0  0  0  0  0  0  0  0  0
   14.1272  -96.9263    0.0000 O   0  0  0  0  0  0  0  0  0  0  0  0
   14.5397  -97.6408    0.0000 C   0  0  0  0  0  0  0  0  0  0  0  0
   14.1272  -98.3553    0.0000 O   0  0  0  0  0  0  0  0  0  0  0  0
   14.5397  -99.0697    0.0000 C   0  0  0  0  0  0  0  0  0  0  0  0
   14.1272  -99.7842    0.0000 C   0  0  0  0  0  0  0  0  0  0  0  0
   14.5397 -100.4987    0.0000 O   0  0  0  0  0  0  0  0  0  0  0  0
   14.1272 -101.2132    0.0000 C   0  0  0  0  0  0  0  0  0  0  0  0
   14.5397 -101.9276    0.0000 O   0  0  0  0  0  0  0  0  0  0  0  0
   14.1272 -102.6421    0.0000 C   0  0  0  0  0  0  0  0  0  0  0  0
   14.5397 -103.3566    0.0000 C   0  0  0  0  0  0  0  0  0  0  0  0
   14.1272 -104.0710    0.0000 O   0  0  0  0  0  0  0  0  0  0  0  0
   14.5397 -104.7855    0.0000 C   0  0  0  0  0  0  0  0  0  0  0  0
   14.1272 -105.5000    0.0000 O   0  0  0  0  0  0  0  0  0  0  0  0
   14.5397 -106.2144    0.0000 C   0  0  0  0  0  0  0  0  0  0  0  0
   14.1272 -106.9289    0.0000 C   0  0  0  0  0  0  0  0  0  0  0  0
   14.5397 -107.6434    0.0000 O   0  0  0  0  0  0  0  0  0  0  0  0
   14.1272 -108.3579    0.0000 C   0  0  0  0  0  0  0  0  0  0  0  0
   14.5397 -109.0723    0.0000 O   0  0  0  0  0  0  0  0  0  0  0  0
   14.1272 -109.7868    0.0000 C   0  0  0  0  0  0  0  0  0  0  0  0
   14.5397 -110.5013    0.0000 C   0  0  0  0  0  0  0  0  0  0  0  0
   14.1272 -111.2157    0.0000 O   0  0  0  0  0  0  0  0  0  0  0  0
   14.5397 -111.9302    0.0000 C   0  0  0  0  0  0  0  0  0  0  0  0
   14.1272 -112.6447    0.0000 O   0  0  0  0  0  0  0  0  0  0  0  0
   14.5397 -113.3592    0.0000 C   0  0  0  0  0  0  0  0  0  0  0  0
   14.1272 -114.0736    0.0000 C   0  0  0  0  0  0  0  0  0  0  0  0
   14.5397 -114.7881    0.0000 O   0  0  0  0  0  0  0  0  0  0  0  0
   14.1272 -115.5026    0.0000 C   0  0  0  0  0  0  0  0  0  0  0  0
   14.5397 -116.2170    0.0000 O   0  0  0  0  0  0  0  0  0  0  0  0
   14.1272 -116.9315    0.0000 C   0  0  0  0  0  0  0  0  0  0  0  0
   14.5397 -117.6460    0.0000 C   0  0  0  0  0  0  0  0  0  0  0  0
   14.1272 -118.3605    0.0000 O   0  0  0  0  0  0  0  0  0  0  0  0
   14.5397 -119.0749    0.0000 C   0  0  0  0  0  0  0  0  0  0  0  0
   14.1272 -119.7894    0.0000 O   0  0  0  0  0  0  0  0  0  0  0  0
   14.5397 -120.5039    0.0000 O   0  0  0  0  0  0  0  0  0  0  0  0
   14.1272 -121.2183    0.0000 C   0  0  0  0  0  0  0  0  0  0  0  0
   14.5919 -121.9000    0.0000 O   0  0  0  0  0  0  0  0  0  0  0  0
   14.3487 -122.6883    0.0000 C   0  0  0  0  0  0  0  0  0  0  0  0
   14.9535 -123.2495    0.0000 C   0  0  0  0  0  0  0  0  0  0  0  0
   15.7419 -123.0063    0.0000 O   0  0  0  0  0  0  0  0  0  0  0  0
   13.5808 -122.9897    0.0000 C   0  0  0  0  0  0  0  0  0  0  0  0
   13.5191 -123.8124    0.0000 O   0  0  0  0  0  0  0  0  0  0  0  0
   12.8663 -122.5772    0.0000 C   0  0  0  0  0  0  0  0  0  0  0  0
   12.1846 -123.0420    0.0000 O   0  0  0  0  0  0  0  0  0  0  0  0
   12.7433 -121.7615    0.0000 C   0  0  0  0  0  0  0  0  0  0  0  0
   11.9550 -121.5183    0.0000 O   0  0  0  0  0  0  0  0  0  0  0  0
   13.3045 -121.1567    0.0000 C   0  0  0  0  0  0  0  0  0  0  0  0
   13.0031 -120.3887    0.0000 O   0  0  0  0  0  0  0  0  0  0  0  0
   12.1752  -34.3549    0.0000 C   0  0  0  0  0  0  0  0  0  0  0  0
   12.1752  -33.5299    0.0000 O   0  0  0  0  0  0  0  0  0  0  0  0
   12.8897  -33.1174    0.0000 C   0  0  0  0  0  0  0  0  0  0  0  0
   13.6041  -33.5299    0.0000 C   0  0  0  0  0  0  0  0  0  0  0  0
   14.3186  -33.1174    0.0000 O   0  0  0  0  0  0  0  0  0  0  0  0
   15.0331  -33.5299    0.0000 C   0  0  0  0  0  0  0  0  0  0  0  0
   15.7476  -33.1174    0.0000 O   0  0  0  0  0  0  0  0  0  0  0  0
   16.4620  -33.5299    0.0000 C   0  0  0  0  0  0  0  0  0  0  0  0
   17.1765  -33.1174    0.0000 C   0  0  0  0  0  0  0  0  0  0  0  0
   17.8910  -33.5299    0.0000 O   0  0  0  0  0  0  0  0  0  0  0  0
   18.6054  -33.1174    0.0000 C   0  0  0  0  0  0  0  0  0  0  0  0
   19.3199  -33.5299    0.0000 O   0  0  0  0  0  0  0  0  0  0  0  0
   20.0344  -33.1174    0.0000 C   0  0  0  0  0  0  0  0  0  0  0  0
   20.7489  -33.5299    0.0000 C   0  0  0  0  0  0  0  0  0  0  0  0
   21.4633  -33.1174    0.0000 O   0  0  0  0  0  0  0  0  0  0  0  0
   22.1778  -33.5299    0.0000 C   0  0  0  0  0  0  0  0  0  0  0  0
   22.8923  -33.1174    0.0000 O   0  0  0  0  0  0  0  0  0  0  0  0
   23.6067  -33.5299    0.0000 C   0  0  0  0  0  0  0  0  0  0  0  0
   24.3212  -33.1174    0.0000 C   0  0  0  0  0  0  0  0  0  0  0  0
   25.0357  -33.5299    0.0000 O   0  0  0  0  0  0  0  0  0  0  0  0
   25.7501  -33.1174    0.0000 C   0  0  0  0  0  0  0  0  0  0  0  0
   26.4646  -33.5299    0.0000 O   0  0  0  0  0  0  0  0  0  0  0  0
   27.1791  -33.1174    0.0000 C   0  0  0  0  0  0  0  0  0  0  0  0
   27.8936  -33.5299    0.0000 C   0  0  0  0  0  0  0  0  0  0  0  0
   28.6080  -33.1174    0.0000 O   0  0  0  0  0  0  0  0  0  0  0  0
   29.3225  -33.5299    0.0000 C   0  0  0  0  0  0  0  0  0  0  0  0
   30.0370  -33.1174    0.0000 O   0  0  0  0  0  0  0  0  0  0  0  0
   30.7514  -33.5299    0.0000 C   0  0  0  0  0  0  0  0  0  0  0  0
   31.4659  -33.1174    0.0000 C   0  0  0  0  0  0  0  0  0  0  0  0
   32.1804  -33.5299    0.0000 O   0  0  0  0  0  0  0  0  0  0  0  0
   32.8949  -33.1174    0.0000 C   0  0  0  0  0  0  0  0  0  0  0  0
   33.6093  -33.5299    0.0000 O   0  0  0  0  0  0  0  0  0  0  0  0
   34.3238  -33.1174    0.0000 C   0  0  0  0  0  0  0  0  0  0  0  0
   35.0383  -33.5299    0.0000 C   0  0  0  0  0  0  0  0  0  0  0  0
   35.7527  -33.1174    0.0000 O   0  0  0  0  0  0  0  0  0  0  0  0
   36.4672  -33.5299    0.0000 C   0  0  0  0  0  0  0  0  0  0  0  0
   37.1817  -33.1174    0.0000 O   0  0  0  0  0  0  0  0  0  0  0  0
   37.8962  -33.5299    0.0000 C   0  0  0  0  0  0  0  0  0  0  0  0
   38.6106  -33.1174    0.0000 C   0  0  0  0  0  0  0  0  0  0  0  0
   39.3251  -33.5299    0.0000 O   0  0  0  0  0  0  0  0  0  0  0  0
   40.0396  -33.1174    0.0000 C   0  0  0  0  0  0  0  0  0  0  0  0
   40.7540  -33.5299    0.0000 O   0  0  0  0  0  0  0  0  0  0  0  0
   41.4685  -33.1174    0.0000 C   0  0  0  0  0  0  0  0  0  0  0  0
   42.1830  -33.5299    0.0000 C   0  0  0  0  0  0  0  0  0  0  0  0
   42.8975  -33.1174    0.0000 O   0  0  0  0  0  0  0  0  0  0  0  0
   43.6119  -33.5299    0.0000 C   0  0  0  0  0  0  0  0  0  0  0  0
   44.3264  -33.1174    0.0000 O   0  0  0  0  0  0  0  0  0  0  0  0
   45.0409  -33.5299    0.0000 C   0  0  0  0  0  0  0  0  0  0  0  0
   45.7553  -33.1174    0.0000 C   0  0  0  0  0  0  0  0  0  0  0  0
   46.4698  -33.5299    0.0000 O   0  0  0  0  0  0  0  0  0  0  0  0
   47.1843  -33.1174    0.0000 C   0  0  0  0  0  0  0  0  0  0  0  0
   47.8987  -33.5299    0.0000 O   0  0  0  0  0  0  0  0  0  0  0  0
   48.6132  -33.1174    0.0000 C   0  0  0  0  0  0  0  0  0  0  0  0
   49.3277  -33.5299    0.0000 C   0  0  0  0  0  0  0  0  0  0  0  0
   50.0422  -33.1174    0.0000 O   0  0  0  0  0  0  0  0  0  0  0  0
   50.7566  -33.5299    0.0000 C   0  0  0  0  0  0  0  0  0  0  0  0
   51.4711  -33.1174    0.0000 O   0  0  0  0  0  0  0  0  0  0  0  0
   52.1856  -33.5299    0.0000 C   0  0  0  0  0  0  0  0  0  0  0  0
   52.9000  -33.1174    0.0000 C   0  0  0  0  0  0  0  0  0  0  0  0
   53.6145  -33.5299    0.0000 O   0  0  0  0  0  0  0  0  0  0  0  0
   54.3290  -33.1174    0.0000 C   0  0  0  0  0  0  0  0  0  0  0  0
   55.0435  -33.5299    0.0000 O   0  0  0  0  0  0  0  0  0  0  0  0
   55.7579  -33.1174    0.0000 C   0  0  0  0  0  0  0  0  0  0  0  0
   56.4724  -33.5299    0.0000 C   0  0  0  0  0  0  0  0  0  0  0  0
   57.1869  -33.1174    0.0000 O   0  0  0  0  0  0  0  0  0  0  0  0
   57.9013  -33.5299    0.0000 C   0  0  0  0  0  0  0  0  0  0  0  0
   58.6158  -33.1174    0.0000 O   0  0  0  0  0  0  0  0  0  0  0  0
   59.3303  -33.5299    0.0000 C   0  0  0  0  0  0  0  0  0  0  0  0
   60.0448  -33.1174    0.0000 C   0  0  0  0  0  0  0  0  0  0  0  0
   60.7592  -33.5299    0.0000 O   0  0  0  0  0  0  0  0  0  0  0  0
   61.4737  -33.1174    0.0000 C   0  0  0  0  0  0  0  0  0  0  0  0
   62.1882  -33.5299    0.0000 O   0  0  0  0  0  0  0  0  0  0  0  0
   62.9026  -33.1174    0.0000 C   0  0  0  0  0  0  0  0  0  0  0  0
   63.6171  -33.5299    0.0000 C   0  0  0  0  0  0  0  0  0  0  0  0
   64.3316  -33.1174    0.0000 O   0  0  0  0  0  0  0  0  0  0  0  0
   65.0461  -33.5299    0.0000 C   0  0  0  0  0  0  0  0  0  0  0  0
   65.7605  -33.1174    0.0000 O   0  0  0  0  0  0  0  0  0  0  0  0
   66.4750  -33.5299    0.0000 C   0  0  0  0  0  0  0  0  0  0  0  0
   67.1895  -33.1174    0.0000 C   0  0  0  0  0  0  0  0  0  0  0  0
   67.9039  -33.5299    0.0000 O   0  0  0  0  0  0  0  0  0  0  0  0
   68.6184  -33.1174    0.0000 C   0  0  0  0  0  0  0  0  0  0  0  0
   69.3329  -33.5299    0.0000 O   0  0  0  0  0  0  0  0  0  0  0  0
   70.0473  -33.1174    0.0000 C   0  0  0  0  0  0  0  0  0  0  0  0
   70.7618  -33.5299    0.0000 C   0  0  0  0  0  0  0  0  0  0  0  0
   71.4763  -33.1174    0.0000 O   0  0  0  0  0  0  0  0  0  0  0  0
   72.1908  -33.5299    0.0000 C   0  0  0  0  0  0  0  0  0  0  0  0
   72.9052  -33.1174    0.0000 O   0  0  0  0  0  0  0  0  0  0  0  0
   73.6197  -33.5299    0.0000 C   0  0  0  0  0  0  0  0  0  0  0  0
   74.3342  -33.1174    0.0000 C   0  0  0  0  0  0  0  0  0  0  0  0
   75.0486  -33.5299    0.0000 O   0  0  0  0  0  0  0  0  0  0  0  0
   75.7631  -33.1174    0.0000 C   0  0  0  0  0  0  0  0  0  0  0  0
   76.4776  -33.5299    0.0000 O   0  0  0  0  0  0  0  0  0  0  0  0
   77.1921  -33.1174    0.0000 C   0  0  0  0  0  0  0  0  0  0  0  0
   77.9065  -33.5299    0.0000 C   0  0  0  0  0  0  0  0  0  0  0  0
   78.6210  -33.1174    0.0000 O   0  0  0  0  0  0  0  0  0  0  0  0
   79.3355  -33.5299    0.0000 C   0  0  0  0  0  0  0  0  0  0  0  0
   80.0499  -33.1174    0.0000 O   0  0  0  0  0  0  0  0  0  0  0  0
   80.7644  -33.5299    0.0000 C   0  0  0  0  0  0  0  0  0  0  0  0
   81.4789  -33.1174    0.0000 C   0  0  0  0  0  0  0  0  0  0  0  0
   82.1934  -33.5299    0.0000 O   0  0  0  0  0  0  0  0  0  0  0  0
   82.9078  -33.1174    0.0000 C   0  0  0  0  0  0  0  0  0  0  0  0
   83.6223  -33.5299    0.0000 O   0  0  0  0  0  0  0  0  0  0  0  0
   84.3368  -33.1174    0.0000 C   0  0  0  0  0  0  0  0  0  0  0  0
   85.0512  -33.5299    0.0000 C   0  0  0  0  0  0  0  0  0  0  0  0
   85.7657  -33.1174    0.0000 O   0  0  0  0  0  0  0  0  0  0  0  0
   86.4802  -33.5299    0.0000 C   0  0  0  0  0  0  0  0  0  0  0  0
   87.1947  -33.1174    0.0000 O   0  0  0  0  0  0  0  0  0  0  0  0
   87.9091  -33.5299    0.0000 C   0  0  0  0  0  0  0  0  0  0  0  0
   88.6236  -33.1174    0.0000 C   0  0  0  0  0  0  0  0  0  0  0  0
   89.3381  -33.5299    0.0000 O   0  0  0  0  0  0  0  0  0  0  0  0
   90.0525  -33.1174    0.0000 C   0  0  0  0  0  0  0  0  0  0  0  0
   90.7670  -33.5299    0.0000 O   0  0  0  0  0  0  0  0  0  0  0  0
   91.4815  -33.1174    0.0000 C   0  0  0  0  0  0  0  0  0  0  0  0
   92.1959  -33.5299    0.0000 C   0  0  0  0  0  0  0  0  0  0  0  0
   92.9104  -33.1174    0.0000 O   0  0  0  0  0  0  0  0  0  0  0  0
   93.6249  -33.5299    0.0000 C   0  0  0  0  0  0  0  0  0  0  0  0
   94.3394  -33.1174    0.0000 O   0  0  0  0  0  0  0  0  0  0  0  0
   95.0538  -33.5299    0.0000 C   0  0  0  0  0  0  0  0  0  0  0  0
   95.7683  -33.1174    0.0000 C   0  0  0  0  0  0  0  0  0  0  0  0
   96.4828  -33.5299    0.0000 O   0  0  0  0  0  0  0  0  0  0  0  0
   97.1972  -33.1174    0.0000 C   0  0  0  0  0  0  0  0  0  0  0  0
   97.9117  -33.5299    0.0000 O   0  0  0  0  0  0  0  0  0  0  0  0
   98.6262  -33.1174    0.0000 O   0  0  0  0  0  0  0  0  0  0  0  0
   99.3407  -33.5299    0.0000 C   0  0  0  0  0  0  0  0  0  0  0  0
  100.0223  -33.0651    0.0000 O   0  0  0  0  0  0  0  0  0  0  0  0
  100.8107  -33.3083    0.0000 C   0  0  0  0  0  0  0  0  0  0  0  0
  101.3718  -32.7035    0.0000 C   0  0  0  0  0  0  0  0  0  0  0  0
  102.1761  -32.8871    0.0000 O   0  0  0  0  0  0  0  0  0  0  0  0
  101.1121  -34.0763    0.0000 C   0  0  0  0  0  0  0  0  0  0  0  0
  101.9348  -34.1379    0.0000 O   0  0  0  0  0  0  0  0  0  0  0  0
  100.6996  -34.7907    0.0000 C   0  0  0  0  0  0  0  0  0  0  0  0
  101.1643  -35.4724    0.0000 O   0  0  0  0  0  0  0  0  0  0  0  0
   99.8838  -34.9137    0.0000 C   0  0  0  0  0  0  0  0  0  0  0  0
   99.6406  -35.7020    0.0000 O   0  0  0  0  0  0  0  0  0  0  0  0
   99.2790  -34.3525    0.0000 C   0  0  0  0  0  0  0  0  0  0  0  0
   98.5110  -34.6540    0.0000 O   0  0  0  0  0  0  0  0  0  0  0  0
  -64.1933  -79.8079    0.0000 C   0  0  0  0  0  0  0  0  0  0  0  0
  -63.6789  -80.4529    0.0000 O   0  0  0  0  0  0  0  0  0  0  0  0
  -64.9976  -79.9914    0.0000 C   0  0  0  0  0  0  0  0  0  0  0  0
  -65.1812  -80.7957    0.0000 O   0  0  0  0  0  0  0  0  0  0  0  0
  -65.6426  -79.4771    0.0000 C   0  0  0  0  0  0  0  0  0  0  0  0
  -66.3859  -79.8350    0.0000 O   0  0  0  0  0  0  0  0  0  0  0  0
  -65.6426  -78.6521    0.0000 C   0  0  0  0  0  0  0  0  0  0  0  0
  -66.3859  -78.2941    0.0000 O   0  0  0  0  0  0  0  0  0  0  0  0
  1  2  1  0  0  0  0
  3  2  1  0  0  0  0
  3  4  1  0  0  0  0
  5  4  1  0  0  0  0
  5  6  1  0  0  0  0
  6  7  1  0  0  0  0
  7  8  1  0  0  0  0
  8  9  1  0  0  0  0
  9 10  1  0  0  0  0
 10 11  1  0  0  0  0
 11 12  1  0  0  0  0
 12 13  1  0  0  0  0
 13 14  1  0  0  0  0
 14 15  1  0  0  0  0
 15 16  1  0  0  0  0
 16 17  1  0  0  0  0
 17 18  1  0  0  0  0
 18 19  1  0  0  0  0
 19 20  1  0  0  0  0
 20 21  1  0  0  0  0
 21 22  1  0  0  0  0
 22 23  1  0  0  0  0
 23 24  1  0  0  0  0
 24 25  1  0  0  0  0
 25 26  1  0  0  0  0
 26 27  1  0  0  0  0
 27 28  1  0  0  0  0
 28 29  1  0  0  0  0
 29 30  1  0  0  0  0
 30 31  1  0  0  0  0
 31 32  1  0  0  0  0
 32 33  1  0  0  0  0
 33 34  1  0  0  0  0
 34 35  1  0  0  0  0
 35 36  1  0  0  0  0
 36 37  1  0  0  0  0
 37 38  1  0  0  0  0
 38 39  1  0  0  0  0
 39 40  1  0  0  0  0
 40 41  1  0  0  0  0
 41 42  1  0  0  0  0
 42 43  1  0  0  0  0
 43 44  1  0  0  0  0
 44 45  1  0  0  0  0
 45 46  1  0  0  0  0
 46 47  1  0  0  0  0
 47 48  1  0  0  0  0
 48 49  1  0  0  0  0
 49 50  1  0  0  0  0
 50 51  1  0  0  0  0
 51 52  1  0  0  0  0
 52 53  1  0  0  0  0
 53 54  1  0  0  0  0
 54 55  1  0  0  0  0
 55 56  1  0  0  0  0
 56 57  1  0  0  0  0
 57 58  1  0  0  0  0
 58 59  1  0  0  0  0
 59 60  1  0  0  0  0
 60 61  1  0  0  0  0
 61 62  1  0  0  0  0
 62 63  1  0  0  0  0
 63 64  1  0  0  0  0
 64 65  1  0  0  0  0
 65 66  1  0  0  0  0
 66 67  1  0  0  0  0
 67 68  1  0  0  0  0
 68 69  1  0  0  0  0
 69 70  1  0  0  0  0
 70 71  1  0  0  0  0
 71 72  1  0  0  0  0
 72 73  1  0  0  0  0
 73 74  1  0  0  0  0
 74 75  1  0  0  0  0
 75 76  1  0  0  0  0
 76 77  1  0  0  0  0
 77 78  1  0  0  0  0
 78 79  1  0  0  0  0
 79 80  1  0  0  0  0
 80 81  1  0  0  0  0
 81 82  1  0  0  0  0
 82 83  1  0  0  0  0
 83 84  1  0  0  0  0
 84 85  1  0  0  0  0
 85 86  1  0  0  0  0
 86 87  1  0  0  0  0
 87 88  1  0  0  0  0
 88 89  1  0  0  0  0
 89 90  1  0  0  0  0
 90 91  1  0  0  0  0
 91 92  1  0  0  0  0
 92 93  1  0  0  0  0
 93 94  1  0  0  0  0
 94 95  1  0  0  0  0
 95 96  1  0  0  0  0
 96 97  1  0  0  0  0
 97 98  1  0  0  0  0
 98 99  1  0  0  0  0
 99100  1  0  0  0  0
100101  1  0  0  0  0
101102  1  0  0  0  0
102103  1  0  0  0  0
103104  1  0  0  0  0
104105  1  0  0  0  0
105106  1  0  0  0  0
106107  1  0  0  0  0
107108  1  0  0  0  0
108109  1  0  0  0  0
109110  1  0  0  0  0
110111  1  0  0  0  0
111112  1  0  0  0  0
112113  1  0  0  0  0
113114  1  0  0  0  0
114115  1  0  0  0  0
115116  1  0  0  0  0
116117  1  0  0  0  0
117118  1  0  0  0  0
118119  1  0  0  0  0
119120  1  0  0  0  0
120121  1  0  0  0  0
121122  1  0  0  0  0
122123  1  0  0  0  0
123124  1  0  0  0  0
124125  1  0  0  0  0
125126  1  0  0  0  0
126127  1  0  0  0  0
127128  1  0  0  0  0
128129  1  0  0  0  0
129130  1  0  0  0  0
129131  1  0  0  0  0
131132  1  0  0  0  0
132133  1  0  0  0  0
133134  1  0  0  0  0
134135  1  0  0  0  0
135136  1  0  0  0  0
136137  1  0  0  0  0
137138  1  0  0  0  0
138139  1  0  0  0  0
139140  1  0  0  0  0
140141  1  0  0  0  0
141142  1  0  0  0  0
142143  1  0  0  0  0
143144  1  0  0  0  0
144145  1  0  0  0  0
145146  1  0  0  0  0
146147  1  0  0  0  0
147148  1  0  0  0  0
148149  1  0  0  0  0
149150  1  0  0  0  0
150151  1  0  0  0  0
151152  1  0  0  0  0
152153  1  0  0  0  0
153154  1  0  0  0  0
154155  1  0  0  0  0
155156  1  0  0  0  0
156157  1  0  0  0  0
157158  1  0  0  0  0
158159  1  0  0  0  0
159160  1  0  0  0  0
160161  1  0  0  0  0
161162  1  0  0  0  0
162163  1  0  0  0  0
163164  1  0  0  0  0
164165  1  0  0  0  0
165166  1  0  0  0  0
166167  1  0  0  0  0
167168  1  0  0  0  0
168169  1  0  0  0  0
169170  1  0  0  0  0
170171  1  0  0  0  0
171172  1  0  0  0  0
172173  1  0  0  0  0
173174  1  0  0  0  0
174175  1  0  0  0  0
175176  1  0  0  0  0
176177  1  0  0  0  0
177178  1  0  0  0  0
178179  1  0  0  0  0
179180  1  0  0  0  0
180181  1  0  0  0  0
181182  1  0  0  0  0
182183  1  0  0  0  0
183184  1  0  0  0  0
184185  1  0  0  0  0
185186  1  0  0  0  0
186187  1  0  0  0  0
187188  1  0  0  0  0
188189  1  0  0  0  0
189190  1  0  0  0  0
190191  1  0  0  0  0
191192  1  0  0  0  0
192193  1  0  0  0  0
193194  1  0  0  0  0
194195  1  0  0  0  0
195196  1  0  0  0  0
196197  1  0  0  0  0
197198  1  0  0  0  0
198199  1  0  0  0  0
199200  1  0  0  0  0
200201  1  0  0  0  0
201202  1  0  0  0  0
202203  1  0  0  0  0
203204  1  0  0  0  0
204205  1  0  0  0  0
205206  1  0  0  0  0
206207  1  0  0  0  0
207208  1  0  0  0  0
208209  1  0  0  0  0
209210  1  0  0  0  0
210211  1  0  0  0  0
211212  1  0  0  0  0
212213  1  0  0  0  0
213214  1  0  0  0  0
214215  1  0  0  0  0
215216  1  0  0  0  0
216217  1  0  0  0  0
217218  1  0  0  0  0
218219  1  0  0  0  0
219220  1  0  0  0  0
220221  1  0  0  0  0
221222  1  0  0  0  0
222223  1  0  0  0  0
223224  1  0  0  0  0
224225  1  0  0  0  0
225226  1  0  0  0  0
226227  1  0  0  0  0
227228  1  0  0  0  0
228229  1  0  0  0  0
229230  1  0  0  0  0
230231  1  0  0  0  0
231232  1  0  0  0  0
232233  1  0  0  0  0
233234  1  0  0  0  0
234235  1  0  0  0  0
235236  1  0  0  0  0
236237  1  0  0  0  0
237238  1  0  0  0  0
238239  1  0  0  0  0
239240  1  0  0  0  0
240241  1  0  0  0  0
241242  1  0  0  0  0
242243  1  0  0  0  0
243244  1  0  0  0  0
244245  1  0  0  0  0
245246  1  0  0  0  0
246247  1  0  0  0  0
247248  1  0  0  0  0
248249  1  0  0  0  0
249250  1  0  0  0  0
250251  1  0  0  0  0
251252  1  0  0  0  0
252253  1  0  0  0  0
254253  1  0  0  0  0
254255  1  0  0  0  0
256255  1  0  0  0  0
256257  1  0  0  0  0
257258  1  0  0  0  0
259256  1  0  0  0  0
259260  1  0  0  0  0
259261  1  0  0  0  0
261262  1  0  0  0  0
261263  1  0  0  0  0
263264  1  0  0  0  0
263265  1  0  0  0  0
265254  1  0  0  0  0
265266  1  0  0  0  0
129267  1  0  0  0  0
267268  1  0  0  0  0
268269  1  0  0  0  0
269270  1  0  0  0  0
270271  1  0  0  0  0
271272  1  0  0  0  0
272273  1  0  0  0  0
273274  1  0  0  0  0
274275  1  0  0  0  0
275276  1  0  0  0  0
276277  1  0  0  0  0
277278  1  0  0  0  0
278279  1  0  0  0  0
279280  1  0  0  0  0
280281  1  0  0  0  0
281282  1  0  0  0  0
282283  1  0  0  0  0
283284  1  0  0  0  0
284285  1  0  0  0  0
285286  1  0  0  0  0
286287  1  0  0  0  0
287288  1  0  0  0  0
288289  1  0  0  0  0
289290  1  0  0  0  0
290291  1  0  0  0  0
291292  1  0  0  0  0
292293  1  0  0  0  0
293294  1  0  0  0  0
294295  1  0  0  0  0
295296  1  0  0  0  0
296297  1  0  0  0  0
297298  1  0  0  0  0
298299  1  0  0  0  0
299300  1  0  0  0  0
300301  1  0  0  0  0
301302  1  0  0  0  0
302303  1  0  0  0  0
303304  1  0  0  0  0
304305  1  0  0  0  0
305306  1  0  0  0  0
306307  1  0  0  0  0
307308  1  0  0  0  0
308309  1  0  0  0  0
309310  1  0  0  0  0
310311  1  0  0  0  0
311312  1  0  0  0  0
312313  1  0  0  0  0
313314  1  0  0  0  0
314315  1  0  0  0  0
315316  1  0  0  0  0
316317  1  0  0  0  0
317318  1  0  0  0  0
318319  1  0  0  0  0
319320  1  0  0  0  0
320321  1  0  0  0  0
321322  1  0  0  0  0
322323  1  0  0  0  0
323324  1  0  0  0  0
324325  1  0  0  0  0
325326  1  0  0  0  0
326327  1  0  0  0  0
327328  1  0  0  0  0
328329  1  0  0  0  0
329330  1  0  0  0  0
330331  1  0  0  0  0
331332  1  0  0  0  0
332333  1  0  0  0  0
333334  1  0  0  0  0
334335  1  0  0  0  0
335336  1  0  0  0  0
336337  1  0  0  0  0
337338  1  0  0  0  0
338339  1  0  0  0  0
339340  1  0  0  0  0
340341  1  0  0  0  0
341342  1  0  0  0  0
342343  1  0  0  0  0
343344  1  0  0  0  0
344345  1  0  0  0  0
345346  1  0  0  0  0
346347  1  0  0  0  0
347348  1  0  0  0  0
348349  1  0  0  0  0
349350  1  0  0  0  0
350351  1  0  0  0  0
351352  1  0  0  0  0
352353  1  0  0  0  0
353354  1  0  0  0  0
354355  1  0  0  0  0
355356  1  0  0  0  0
356357  1  0  0  0  0
357358  1  0  0  0  0
358359  1  0  0  0  0
359360  1  0  0  0  0
360361  1  0  0  0  0
361362  1  0  0  0  0
362363  1  0  0  0  0
363364  1  0  0  0  0
364365  1  0  0  0  0
365366  1  0  0  0  0
366367  1  0  0  0  0
367368  1  0  0  0  0
368369  1  0  0  0  0
369370  1  0  0  0  0
370371  1  0  0  0  0
371372  1  0  0  0  0
372373  1  0  0  0  0
373374  1  0  0  0  0
374375  1  0  0  0  0
375376  1  0  0  0  0
376377  1  0  0  0  0
377378  1  0  0  0  0
378379  1  0  0  0  0
379380  1  0  0  0  0
380381  1  0  0  0  0
381382  1  0  0  0  0
382383  1  0  0  0  0
383384  1  0  0  0  0
384385  1  0  0  0  0
385386  1  0  0  0  0
386387  1  0  0  0  0
387388  1  0  0  0  0
388389  1  0  0  0  0
390389  1  0  0  0  0
390391  1  0  0  0  0
392391  1  0  0  0  0
392393  1  0  0  0  0
393394  1  0  0  0  0
395392  1  0  0  0  0
395396  1  0  0  0  0
395397  1  0  0  0  0
397398  1  0  0  0  0
397399  1  0  0  0  0
399400  1  0  0  0  0
399401  1  0  0  0  0
401390  1  0  0  0  0
401402  1  0  0  0  0
403  5  1  0  0  0  0
403404  1  0  0  0  0
403405  1  0  0  0  0
405406  1  0  0  0  0
405407  1  0  0  0  0
407408  1  0  0  0  0
407409  1  0  0  0  0
409  3  1  0  0  0  0
409410  1  0  0  0  0
M  END
