@<TRIPOS>MOLECULE
lig
 889 891 0 0 0
SMALL
GASTEIGER

@<TRIPOS>ATOM
      1 H         -53.3100 -126.4146    0.0000 H       1  UNL11       0.2095
      2 O         -53.1264 -127.2190    0.0000 O.3     1  UNL11      -0.3924
      3 C         -52.3381 -127.4621    0.0000 C.3     1  UNL11       0.0730
      4 H         -51.5458 -127.2321    0.0000 H       1  UNL11       0.0584
      5 H         -52.0495 -126.6893    0.0000 H       1  UNL11       0.0584
      6 C         -52.1545 -128.2665    0.0000 C.3     1  UNL11       0.1131
      7 H         -52.9332 -127.9940    0.0000 H       1  UNL11       0.0647
      8 O         -51.3502 -128.4500    0.0000 O.3     1  UNL11      -0.3383
      9 C         -50.9922 -129.1933    0.0000 C.3     1  UNL11       0.2214
     10 H         -50.5533 -129.8919    0.0000 H       1  UNL11       0.0968
     11 O         -50.1672 -129.1933    0.0000 O.3     1  UNL11      -0.1978
     12 O         -49.7547 -128.4789    0.0000 O.3     1  UNL11      -0.2037
     13 C         -48.9297 -128.4789    0.0000 C.3     1  UNL11       0.1819
     14 H         -48.8818 -129.3025    0.0000 H       1  UNL11       0.0902
     15 H         -48.2405 -128.9322    0.0000 H       1  UNL11       0.0902
     16 O         -48.5172 -127.7644    0.0000 O.3     1  UNL11      -0.3488
     17 C         -47.6922 -127.7644    0.0000 C.3     1  UNL11       0.0739
     18 H         -47.6443 -128.5880    0.0000 H       1  UNL11       0.0584
     19 H         -47.0030 -128.2178    0.0000 H       1  UNL11       0.0584
     20 C         -47.2797 -127.0499    0.0000 C.3     1  UNL11       0.0738
     21 H         -47.3277 -126.2263    0.0000 H       1  UNL11       0.0584
     22 H         -47.9690 -126.5966    0.0000 H       1  UNL11       0.0584
     23 O         -46.4547 -127.0499    0.0000 O.3     1  UNL11      -0.3518
     24 C         -46.0422 -126.3355    0.0000 C.3     1  UNL11       0.1483
     25 H         -46.0902 -125.5119    0.0000 H       1  UNL11       0.0871
     26 H         -46.7315 -125.8821    0.0000 H       1  UNL11       0.0871
     27 O         -45.2172 -126.3355    0.0000 O.3     1  UNL11      -0.3518
     28 C         -44.8047 -125.6210    0.0000 C.3     1  UNL11       0.0738
     29 H         -44.8527 -124.7974    0.0000 H       1  UNL11       0.0584
     30 H         -45.4940 -125.1676    0.0000 H       1  UNL11       0.0584
     31 C         -43.9797 -125.6210    0.0000 C.3     1  UNL11       0.0738
     32 H         -43.9318 -126.4446    0.0000 H       1  UNL11       0.0584
     33 H         -43.2905 -126.0743    0.0000 H       1  UNL11       0.0584
     34 O         -43.5672 -124.9065    0.0000 O.3     1  UNL11      -0.3518
     35 C         -42.7422 -124.9065    0.0000 C.3     1  UNL11       0.1483
     36 H         -42.6943 -125.7301    0.0000 H       1  UNL11       0.0871
     37 H         -42.0530 -125.3598    0.0000 H       1  UNL11       0.0871
     38 O         -42.3297 -124.1920    0.0000 O.3     1  UNL11      -0.3518
     39 C         -41.5047 -124.1920    0.0000 C.3     1  UNL11       0.0738
     40 H         -41.4568 -125.0156    0.0000 H       1  UNL11       0.0584
     41 H         -40.8155 -124.6454    0.0000 H       1  UNL11       0.0584
     42 C         -41.0922 -123.4775    0.0000 C.3     1  UNL11       0.0738
     43 H         -41.1402 -122.6539    0.0000 H       1  UNL11       0.0584
     44 H         -41.7815 -123.0242    0.0000 H       1  UNL11       0.0584
     45 O         -40.2672 -123.4775    0.0000 O.3     1  UNL11      -0.3518
     46 C         -39.8547 -122.7631    0.0000 C.3     1  UNL11       0.1483
     47 H         -39.9027 -121.9395    0.0000 H       1  UNL11       0.0871
     48 H         -40.5440 -122.3097    0.0000 H       1  UNL11       0.0871
     49 O         -39.0297 -122.7631    0.0000 O.3     1  UNL11      -0.3518
     50 C         -38.6172 -122.0486    0.0000 C.3     1  UNL11       0.0738
     51 H         -38.6652 -121.2250    0.0000 H       1  UNL11       0.0584
     52 H         -39.3065 -121.5953    0.0000 H       1  UNL11       0.0584
     53 C         -37.7922 -122.0486    0.0000 C.3     1  UNL11       0.0738
     54 H         -37.7443 -122.8722    0.0000 H       1  UNL11       0.0584
     55 H         -37.1030 -122.5020    0.0000 H       1  UNL11       0.0584
     56 O         -37.3797 -121.3341    0.0000 O.3     1  UNL11      -0.3518
     57 C         -36.5547 -121.3341    0.0000 C.3     1  UNL11       0.1483
     58 H         -36.5068 -122.1578    0.0000 H       1  UNL11       0.0871
     59 H         -35.8655 -121.7875    0.0000 H       1  UNL11       0.0871
     60 O         -36.1422 -120.6197    0.0000 O.3     1  UNL11      -0.3518
     61 C         -35.3172 -120.6197    0.0000 C.3     1  UNL11       0.0738
     62 H         -35.2693 -121.4433    0.0000 H       1  UNL11       0.0584
     63 H         -34.6280 -121.0730    0.0000 H       1  UNL11       0.0584
     64 C         -34.9047 -119.9052    0.0000 C.3     1  UNL11       0.0738
     65 H         -34.9527 -119.0816    0.0000 H       1  UNL11       0.0584
     66 H         -35.5940 -119.4519    0.0000 H       1  UNL11       0.0584
     67 O         -34.0797 -119.9052    0.0000 O.3     1  UNL11      -0.3518
     68 C         -33.6672 -119.1908    0.0000 C.3     1  UNL11       0.1483
     69 H         -33.7152 -118.3671    0.0000 H       1  UNL11       0.0871
     70 H         -34.3565 -118.7374    0.0000 H       1  UNL11       0.0871
     71 O         -32.8422 -119.1908    0.0000 O.3     1  UNL11      -0.3518
     72 C         -32.4297 -118.4763    0.0000 C.3     1  UNL11       0.0738
     73 H         -32.4777 -117.6527    0.0000 H       1  UNL11       0.0584
     74 H         -33.1190 -118.0229    0.0000 H       1  UNL11       0.0584
     75 C         -31.6047 -118.4763    0.0000 C.3     1  UNL11       0.0738
     76 H         -31.5568 -119.2999    0.0000 H       1  UNL11       0.0584
     77 H         -30.9155 -118.9296    0.0000 H       1  UNL11       0.0584
     78 O         -31.1922 -117.7618    0.0000 O.3     1  UNL11      -0.3518
     79 C         -30.3672 -117.7618    0.0000 C.3     1  UNL11       0.1483
     80 H         -30.3193 -118.5854    0.0000 H       1  UNL11       0.0871
     81 H         -29.6780 -118.2151    0.0000 H       1  UNL11       0.0871
     82 O         -29.9547 -117.0473    0.0000 O.3     1  UNL11      -0.3518
     83 C         -29.1297 -117.0473    0.0000 C.3     1  UNL11       0.0738
     84 H         -29.0818 -117.8709    0.0000 H       1  UNL11       0.0584
     85 H         -28.4405 -117.5007    0.0000 H       1  UNL11       0.0584
     86 C         -28.7172 -116.3328    0.0000 C.3     1  UNL11       0.0738
     87 H         -28.7652 -115.5093    0.0000 H       1  UNL11       0.0584
     88 H         -29.4065 -115.8795    0.0000 H       1  UNL11       0.0584
     89 O         -27.8922 -116.3328    0.0000 O.3     1  UNL11      -0.3518
     90 C         -27.4797 -115.6184    0.0000 C.3     1  UNL11       0.1483
     91 H         -27.5277 -114.7948    0.0000 H       1  UNL11       0.0871
     92 H         -28.1690 -115.1650    0.0000 H       1  UNL11       0.0871
     93 O         -26.6547 -115.6184    0.0000 O.3     1  UNL11      -0.3518
     94 C         -26.2422 -114.9039    0.0000 C.3     1  UNL11       0.0738
     95 H         -26.2902 -114.0803    0.0000 H       1  UNL11       0.0584
     96 H         -26.9315 -114.4505    0.0000 H       1  UNL11       0.0584
     97 C         -25.4172 -114.9039    0.0000 C.3     1  UNL11       0.0738
     98 H         -25.3693 -115.7275    0.0000 H       1  UNL11       0.0584
     99 H         -24.7280 -115.3572    0.0000 H       1  UNL11       0.0584
    100 O         -25.0047 -114.1894    0.0000 O.3     1  UNL11      -0.3518
    101 C         -24.1797 -114.1894    0.0000 C.3     1  UNL11       0.1483
    102 H         -24.1318 -115.0130    0.0000 H       1  UNL11       0.0871
    103 H         -23.4905 -114.6428    0.0000 H       1  UNL11       0.0871
    104 O         -23.7672 -113.4750    0.0000 O.3     1  UNL11      -0.3518
    105 C         -22.9422 -113.4750    0.0000 C.3     1  UNL11       0.0738
    106 H         -22.8943 -114.2986    0.0000 H       1  UNL11       0.0584
    107 H         -22.2530 -113.9283    0.0000 H       1  UNL11       0.0584
    108 C         -22.5297 -112.7605    0.0000 C.3     1  UNL11       0.0738
    109 H         -22.5777 -111.9369    0.0000 H       1  UNL11       0.0584
    110 H         -23.2190 -112.3071    0.0000 H       1  UNL11       0.0584
    111 O         -21.7047 -112.7605    0.0000 O.3     1  UNL11      -0.3518
    112 C         -21.2922 -112.0460    0.0000 C.3     1  UNL11       0.1483
    113 H         -21.3402 -111.2224    0.0000 H       1  UNL11       0.0871
    114 H         -21.9815 -111.5927    0.0000 H       1  UNL11       0.0871
    115 O         -20.4672 -112.0460    0.0000 O.3     1  UNL11      -0.3518
    116 C         -20.0547 -111.3316    0.0000 C.3     1  UNL11       0.0738
    117 H         -20.1027 -110.5080    0.0000 H       1  UNL11       0.0584
    118 H         -20.7440 -110.8782    0.0000 H       1  UNL11       0.0584
    119 C         -19.2297 -111.3316    0.0000 C.3     1  UNL11       0.0738
    120 H         -19.1818 -112.1552    0.0000 H       1  UNL11       0.0584
    121 H         -18.5405 -111.7849    0.0000 H       1  UNL11       0.0584
    122 O         -18.8172 -110.6171    0.0000 O.3     1  UNL11      -0.3518
    123 C         -17.9922 -110.6171    0.0000 C.3     1  UNL11       0.1483
    124 H         -17.9443 -111.4407    0.0000 H       1  UNL11       0.0871
    125 H         -17.3030 -111.0705    0.0000 H       1  UNL11       0.0871
    126 O         -17.5797 -109.9026    0.0000 O.3     1  UNL11      -0.3518
    127 C         -16.7547 -109.9026    0.0000 C.3     1  UNL11       0.0738
    128 H         -16.7068 -110.7262    0.0000 H       1  UNL11       0.0584
    129 H         -16.0655 -110.3560    0.0000 H       1  UNL11       0.0584
    130 C         -16.3422 -109.1882    0.0000 C.3     1  UNL11       0.0738
    131 H         -16.3902 -108.3646    0.0000 H       1  UNL11       0.0584
    132 H         -17.0315 -108.7348    0.0000 H       1  UNL11       0.0584
    133 O         -15.5172 -109.1882    0.0000 O.3     1  UNL11      -0.3518
    134 C         -15.1047 -108.4737    0.0000 C.3     1  UNL11       0.1483
    135 H         -15.1527 -107.6501    0.0000 H       1  UNL11       0.0871
    136 H         -15.7940 -108.0203    0.0000 H       1  UNL11       0.0871
    137 O         -14.2797 -108.4737    0.0000 O.3     1  UNL11      -0.3518
    138 C         -13.8672 -107.7592    0.0000 C.3     1  UNL11       0.0738
    139 H         -13.9152 -106.9356    0.0000 H       1  UNL11       0.0584
    140 H         -14.5565 -107.3059    0.0000 H       1  UNL11       0.0584
    141 C         -13.0422 -107.7592    0.0000 C.3     1  UNL11       0.0738
    142 H         -12.9943 -108.5828    0.0000 H       1  UNL11       0.0584
    143 H         -12.3530 -108.2125    0.0000 H       1  UNL11       0.0584
    144 O         -12.6297 -107.0447    0.0000 O.3     1  UNL11      -0.3518
    145 C         -11.8047 -107.0447    0.0000 C.3     1  UNL11       0.1483
    146 H         -11.7568 -107.8683    0.0000 H       1  UNL11       0.0871
    147 H         -11.1155 -107.4981    0.0000 H       1  UNL11       0.0871
    148 O         -11.3922 -106.3302    0.0000 O.3     1  UNL11      -0.3518
    149 C         -10.5672 -106.3302    0.0000 C.3     1  UNL11       0.0738
    150 H         -10.5193 -107.1538    0.0000 H       1  UNL11       0.0584
    151 H          -9.8780 -106.7836    0.0000 H       1  UNL11       0.0584
    152 C         -10.1547 -105.6158    0.0000 C.3     1  UNL11       0.0738
    153 H         -10.2027 -104.7922    0.0000 H       1  UNL11       0.0584
    154 H         -10.8440 -105.1624    0.0000 H       1  UNL11       0.0584
    155 O          -9.3297 -105.6158    0.0000 O.3     1  UNL11      -0.3518
    156 C          -8.9172 -104.9013    0.0000 C.3     1  UNL11       0.1483
    157 H          -8.9652 -104.0777    0.0000 H       1  UNL11       0.0871
    158 H          -9.6065 -104.4480    0.0000 H       1  UNL11       0.0871
    159 O          -8.0922 -104.9013    0.0000 O.3     1  UNL11      -0.3518
    160 C          -7.6797 -104.1868    0.0000 C.3     1  UNL11       0.0738
    161 H          -7.7277 -103.3632    0.0000 H       1  UNL11       0.0584
    162 H          -8.3690 -103.7335    0.0000 H       1  UNL11       0.0584
    163 C          -6.8547 -104.1868    0.0000 C.3     1  UNL11       0.0738
    164 H          -6.8068 -105.0105    0.0000 H       1  UNL11       0.0584
    165 H          -6.1655 -104.6402    0.0000 H       1  UNL11       0.0584
    166 O          -6.4422 -103.4724    0.0000 O.3     1  UNL11      -0.3518
    167 C          -5.6172 -103.4724    0.0000 C.3     1  UNL11       0.1483
    168 H          -5.5693 -104.2960    0.0000 H       1  UNL11       0.0871
    169 H          -4.9280 -103.9257    0.0000 H       1  UNL11       0.0871
    170 O          -5.2047 -102.7579    0.0000 O.3     1  UNL11      -0.3518
    171 C          -4.3797 -102.7579    0.0000 C.3     1  UNL11       0.0738
    172 H          -4.3318 -103.5815    0.0000 H       1  UNL11       0.0584
    173 H          -3.6905 -103.2113    0.0000 H       1  UNL11       0.0584
    174 C          -3.9672 -102.0435    0.0000 C.3     1  UNL11       0.0738
    175 H          -4.0152 -101.2198    0.0000 H       1  UNL11       0.0584
    176 H          -4.6565 -101.5901    0.0000 H       1  UNL11       0.0584
    177 O          -3.1422 -102.0435    0.0000 O.3     1  UNL11      -0.3518
    178 C          -2.7297 -101.3290    0.0000 C.3     1  UNL11       0.1483
    179 H          -2.7777 -100.5054    0.0000 H       1  UNL11       0.0871
    180 H          -3.4190 -100.8756    0.0000 H       1  UNL11       0.0871
    181 O          -1.9047 -101.3290    0.0000 O.3     1  UNL11      -0.3518
    182 C          -1.4922 -100.6145    0.0000 C.3     1  UNL11       0.0738
    183 H          -1.5402  -99.7909    0.0000 H       1  UNL11       0.0584
    184 H          -2.1815 -100.1612    0.0000 H       1  UNL11       0.0584
    185 C          -0.6672 -100.6145    0.0000 C.3     1  UNL11       0.0738
    186 H          -0.6193 -101.4381    0.0000 H       1  UNL11       0.0584
    187 H           0.0219 -101.0678    0.0000 H       1  UNL11       0.0584
    188 O          -0.2547  -99.9000    0.0000 O.3     1  UNL11      -0.3518
    189 C           0.5702  -99.9000    0.0000 C.3     1  UNL11       0.1483
    190 H           0.6181 -100.7236    0.0000 H       1  UNL11       0.0871
    191 H           1.2594 -100.3534    0.0000 H       1  UNL11       0.0871
    192 O           0.9827  -99.1855    0.0000 O.3     1  UNL11      -0.3518
    193 C           1.8077  -99.1855    0.0000 C.3     1  UNL11       0.0738
    194 H           1.8556 -100.0091    0.0000 H       1  UNL11       0.0584
    195 H           2.4969  -99.6389    0.0000 H       1  UNL11       0.0584
    196 C           2.2202  -98.4711    0.0000 C.3     1  UNL11       0.0738
    197 H           2.1722  -97.6475    0.0000 H       1  UNL11       0.0584
    198 H           1.5309  -98.0177    0.0000 H       1  UNL11       0.0584
    199 O           3.0452  -98.4711    0.0000 O.3     1  UNL11      -0.3518
    200 C           3.4577  -97.7566    0.0000 C.3     1  UNL11       0.1483
    201 H           3.4097  -96.9330    0.0000 H       1  UNL11       0.0871
    202 H           2.7684  -97.3032    0.0000 H       1  UNL11       0.0871
    203 O           4.2827  -97.7566    0.0000 O.3     1  UNL11      -0.3518
    204 C           4.6952  -97.0421    0.0000 C.3     1  UNL11       0.0738
    205 H           4.6472  -96.2185    0.0000 H       1  UNL11       0.0584
    206 H           4.0059  -96.5888    0.0000 H       1  UNL11       0.0584
    207 C           5.5202  -97.0421    0.0000 C.3     1  UNL11       0.0738
    208 H           5.5681  -97.8657    0.0000 H       1  UNL11       0.0584
    209 H           6.2094  -97.4955    0.0000 H       1  UNL11       0.0584
    210 O           5.9327  -96.3276    0.0000 O.3     1  UNL11      -0.3518
    211 C           6.7577  -96.3276    0.0000 C.3     1  UNL11       0.1483
    212 H           6.8056  -97.1513    0.0000 H       1  UNL11       0.0871
    213 H           7.4469  -96.7810    0.0000 H       1  UNL11       0.0871
    214 O           7.1702  -95.6132    0.0000 O.3     1  UNL11      -0.3518
    215 C           7.9952  -95.6132    0.0000 C.3     1  UNL11       0.0738
    216 H           8.0431  -96.4368    0.0000 H       1  UNL11       0.0584
    217 H           8.6844  -96.0665    0.0000 H       1  UNL11       0.0584
    218 C           8.4077  -94.8987    0.0000 C.3     1  UNL11       0.0738
    219 H           8.3597  -94.0751    0.0000 H       1  UNL11       0.0584
    220 H           7.7184  -94.4454    0.0000 H       1  UNL11       0.0584
    221 O           9.2327  -94.8987    0.0000 O.3     1  UNL11      -0.3518
    222 C           9.6452  -94.1843    0.0000 C.3     1  UNL11       0.1483
    223 H           9.5972  -93.3606    0.0000 H       1  UNL11       0.0871
    224 H           8.9559  -93.7309    0.0000 H       1  UNL11       0.0871
    225 O          10.4702  -94.1843    0.0000 O.3     1  UNL11      -0.3518
    226 C          10.8827  -93.4698    0.0000 C.3     1  UNL11       0.0738
    227 H          10.8347  -92.6462    0.0000 H       1  UNL11       0.0584
    228 H          10.1934  -93.0165    0.0000 H       1  UNL11       0.0584
    229 C          11.7077  -93.4698    0.0000 C.3     1  UNL11       0.0738
    230 H          11.7556  -94.2934    0.0000 H       1  UNL11       0.0584
    231 H          12.3969  -93.9231    0.0000 H       1  UNL11       0.0584
    232 O          12.1202  -92.7553    0.0000 O.3     1  UNL11      -0.3518
    233 C          12.9452  -92.7553    0.0000 C.3     1  UNL11       0.1483
    234 H          12.9931  -93.5789    0.0000 H       1  UNL11       0.0871
    235 H          13.6344  -93.2087    0.0000 H       1  UNL11       0.0871
    236 O          13.3577  -92.0409    0.0000 O.3     1  UNL11      -0.3518
    237 C          14.1827  -92.0409    0.0000 C.3     1  UNL11       0.0738
    238 H          14.2306  -92.8644    0.0000 H       1  UNL11       0.0584
    239 H          14.8719  -92.4942    0.0000 H       1  UNL11       0.0584
    240 C          14.5952  -91.3264    0.0000 C.3     1  UNL11       0.0738
    241 H          14.5472  -90.5028    0.0000 H       1  UNL11       0.0584
    242 H          13.9059  -90.8730    0.0000 H       1  UNL11       0.0584
    243 O          15.4202  -91.3264    0.0000 O.3     1  UNL11      -0.3518
    244 C          15.8327  -90.6119    0.0000 C.3     1  UNL11       0.1483
    245 H          15.7847  -89.7883    0.0000 H       1  UNL11       0.0871
    246 H          15.1434  -90.1586    0.0000 H       1  UNL11       0.0871
    247 O          16.6577  -90.6119    0.0000 O.3     1  UNL11      -0.3518
    248 C          17.0702  -89.8974    0.0000 C.3     1  UNL11       0.0738
    249 H          17.0222  -89.0738    0.0000 H       1  UNL11       0.0584
    250 H          16.3809  -89.4441    0.0000 H       1  UNL11       0.0584
    251 C          17.8952  -89.8974    0.0000 C.3     1  UNL11       0.0738
    252 H          17.9431  -90.7210    0.0000 H       1  UNL11       0.0584
    253 H          18.5844  -90.3508    0.0000 H       1  UNL11       0.0584
    254 O          18.3077  -89.1829    0.0000 O.3     1  UNL11      -0.3518
    255 C          19.1327  -89.1829    0.0000 C.3     1  UNL11       0.1483
    256 H          19.1806  -90.0065    0.0000 H       1  UNL11       0.0871
    257 H          19.8219  -89.6363    0.0000 H       1  UNL11       0.0871
    258 O          19.5452  -88.4685    0.0000 O.3     1  UNL11      -0.3518
    259 C          20.3702  -88.4685    0.0000 C.3     1  UNL11       0.0738
    260 H          20.4181  -89.2921    0.0000 H       1  UNL11       0.0584
    261 H          21.0594  -88.9218    0.0000 H       1  UNL11       0.0584
    262 C          20.7827  -87.7540    0.0000 C.3     1  UNL11       0.0738
    263 H          20.7347  -86.9304    0.0000 H       1  UNL11       0.0584
    264 H          20.0934  -87.3006    0.0000 H       1  UNL11       0.0584
    265 O          21.6077  -87.7540    0.0000 O.3     1  UNL11      -0.3518
    266 C          22.0202  -87.0395    0.0000 C.3     1  UNL11       0.1483
    267 H          21.9722  -86.2159    0.0000 H       1  UNL11       0.0871
    268 H          21.3309  -86.5862    0.0000 H       1  UNL11       0.0871
    269 O          22.8452  -87.0395    0.0000 O.3     1  UNL11      -0.3518
    270 C          23.2577  -86.3251    0.0000 C.3     1  UNL11       0.0737
    271 H          23.2097  -85.5015    0.0000 H       1  UNL11       0.0584
    272 H          22.5684  -85.8717    0.0000 H       1  UNL11       0.0584
    273 C          24.0827  -86.3251    0.0000 C.3     1  UNL11       0.0712
    274 H          24.1306  -87.1487    0.0000 H       1  UNL11       0.0583
    275 H          24.7719  -86.7784    0.0000 H       1  UNL11       0.0583
    276 O          24.4952  -85.6106    0.0000 O.3     1  UNL11      -0.3755
    277 C          25.3202  -85.6106    0.0000 C.3     1  UNL11       0.0701
    278 H          25.3681  -86.4342    0.0000 H       1  UNL11       0.0580
    279 H          26.0094  -86.0640    0.0000 H       1  UNL11       0.0580
    280 C          25.7327  -84.8961    0.0000 C.3     1  UNL11       0.0872
    281 N          26.4471  -85.3086    0.0000 N.3     1  UNL11      -0.3192
    282 H          27.0791  -84.7783    0.0000 H       1  UNL11       0.1189
    283 H          26.5904  -84.4962    0.0000 H       1  UNL11       0.1189
    284 C          26.1452  -84.1817    0.0000 C.3     1  UNL11       0.0701
    285 H          25.6149  -83.5497    0.0000 H       1  UNL11       0.0580
    286 H          25.3327  -84.0384    0.0000 H       1  UNL11       0.0580
    287 O          26.9702  -84.1817    0.0000 O.3     1  UNL11      -0.3755
    288 C          27.3827  -84.8961    0.0000 C.3     1  UNL11       0.0712
    289 H          28.1199  -85.2664    0.0000 H       1  UNL11       0.0583
    290 H          28.1199  -84.5259    0.0000 H       1  UNL11       0.0583
    291 C          26.9702  -85.6106    0.0000 C.3     1  UNL11       0.0737
    292 H          26.3868  -86.1940    0.0000 H       1  UNL11       0.0584
    293 H          27.7952  -85.6106    0.0000 H       1  UNL11       0.0584
    294 O          27.3827  -86.3251    0.0000 O.3     1  UNL11      -0.3518
    295 C          26.9702  -87.0395    0.0000 C.3     1  UNL11       0.1483
    296 H          26.2329  -86.6693    0.0000 H       1  UNL11       0.0871
    297 H          26.2329  -87.4098    0.0000 H       1  UNL11       0.0871
    298 O          27.3827  -87.7540    0.0000 O.3     1  UNL11      -0.3518
    299 C          26.9702  -88.4685    0.0000 C.3     1  UNL11       0.0738
    300 H          26.2329  -88.0982    0.0000 H       1  UNL11       0.0584
    301 H          26.2329  -88.8387    0.0000 H       1  UNL11       0.0584
    302 C          27.3827  -89.1829    0.0000 C.3     1  UNL11       0.0738
    303 H          28.1199  -89.5532    0.0000 H       1  UNL11       0.0584
    304 H          28.1199  -88.8127    0.0000 H       1  UNL11       0.0584
    305 O          26.9702  -89.8974    0.0000 O.3     1  UNL11      -0.3518
    306 C          27.3827  -90.6119    0.0000 C.3     1  UNL11       0.1483
    307 H          28.1199  -90.9821    0.0000 H       1  UNL11       0.0871
    308 H          28.1199  -90.2416    0.0000 H       1  UNL11       0.0871
    309 O          26.9702  -91.3264    0.0000 O.3     1  UNL11      -0.3518
    310 C          27.3827  -92.0409    0.0000 C.3     1  UNL11       0.0738
    311 H          28.1199  -92.4111    0.0000 H       1  UNL11       0.0584
    312 H          28.1199  -91.6706    0.0000 H       1  UNL11       0.0584
    313 C          26.9702  -92.7553    0.0000 C.3     1  UNL11       0.0738
    314 H          26.2329  -92.3851    0.0000 H       1  UNL11       0.0584
    315 H          26.2329  -93.1256    0.0000 H       1  UNL11       0.0584
    316 O          27.3827  -93.4698    0.0000 O.3     1  UNL11      -0.3518
    317 C          26.9702  -94.1843    0.0000 C.3     1  UNL11       0.1483
    318 H          26.2329  -93.8140    0.0000 H       1  UNL11       0.0871
    319 H          26.2329  -94.5545    0.0000 H       1  UNL11       0.0871
    320 O          27.3827  -94.8987    0.0000 O.3     1  UNL11      -0.3518
    321 C          26.9702  -95.6132    0.0000 C.3     1  UNL11       0.0738
    322 H          26.2329  -95.2429    0.0000 H       1  UNL11       0.0584
    323 H          26.2329  -95.9835    0.0000 H       1  UNL11       0.0584
    324 C          27.3827  -96.3276    0.0000 C.3     1  UNL11       0.0738
    325 H          28.1199  -96.6979    0.0000 H       1  UNL11       0.0584
    326 H          28.1199  -95.9574    0.0000 H       1  UNL11       0.0584
    327 O          26.9702  -97.0421    0.0000 O.3     1  UNL11      -0.3518
    328 C          27.3827  -97.7566    0.0000 C.3     1  UNL11       0.1483
    329 H          28.1199  -98.1268    0.0000 H       1  UNL11       0.0871
    330 H          28.1199  -97.3863    0.0000 H       1  UNL11       0.0871
    331 O          26.9702  -98.4711    0.0000 O.3     1  UNL11      -0.3518
    332 C          27.3827  -99.1855    0.0000 C.3     1  UNL11       0.0738
    333 H          28.1199  -99.5558    0.0000 H       1  UNL11       0.0584
    334 H          28.1199  -98.8153    0.0000 H       1  UNL11       0.0584
    335 C          26.9702  -99.9000    0.0000 C.3     1  UNL11       0.0738
    336 H          26.2329  -99.5298    0.0000 H       1  UNL11       0.0584
    337 H          26.2329 -100.2703    0.0000 H       1  UNL11       0.0584
    338 O          27.3827 -100.6145    0.0000 O.3     1  UNL11      -0.3518
    339 C          26.9702 -101.3290    0.0000 C.3     1  UNL11       0.1483
    340 H          26.2329 -100.9587    0.0000 H       1  UNL11       0.0871
    341 H          26.2329 -101.6992    0.0000 H       1  UNL11       0.0871
    342 O          27.3827 -102.0435    0.0000 O.3     1  UNL11      -0.3518
    343 C          26.9702 -102.7579    0.0000 C.3     1  UNL11       0.0738
    344 H          26.2329 -102.3876    0.0000 H       1  UNL11       0.0584
    345 H          26.2329 -103.1282    0.0000 H       1  UNL11       0.0584
    346 C          27.3827 -103.4724    0.0000 C.3     1  UNL11       0.0738
    347 H          28.1199 -103.8426    0.0000 H       1  UNL11       0.0584
    348 H          28.1199 -103.1021    0.0000 H       1  UNL11       0.0584
    349 O          26.9702 -104.1868    0.0000 O.3     1  UNL11      -0.3518
    350 C          27.3827 -104.9013    0.0000 C.3     1  UNL11       0.1483
    351 H          28.1199 -105.2716    0.0000 H       1  UNL11       0.0871
    352 H          28.1199 -104.5310    0.0000 H       1  UNL11       0.0871
    353 O          26.9702 -105.6158    0.0000 O.3     1  UNL11      -0.3518
    354 C          27.3827 -106.3302    0.0000 C.3     1  UNL11       0.0738
    355 H          28.1199 -106.7005    0.0000 H       1  UNL11       0.0584
    356 H          28.1199 -105.9600    0.0000 H       1  UNL11       0.0584
    357 C          26.9702 -107.0447    0.0000 C.3     1  UNL11       0.0738
    358 H          26.2329 -106.6745    0.0000 H       1  UNL11       0.0584
    359 H          26.2329 -107.4150    0.0000 H       1  UNL11       0.0584
    360 O          27.3827 -107.7592    0.0000 O.3     1  UNL11      -0.3518
    361 C          26.9702 -108.4737    0.0000 C.3     1  UNL11       0.1483
    362 H          26.2329 -108.1034    0.0000 H       1  UNL11       0.0871
    363 H          26.2329 -108.8439    0.0000 H       1  UNL11       0.0871
    364 O          27.3827 -109.1882    0.0000 O.3     1  UNL11      -0.3518
    365 C          26.9702 -109.9026    0.0000 C.3     1  UNL11       0.0738
    366 H          26.2329 -109.5324    0.0000 H       1  UNL11       0.0584
    367 H          26.2329 -110.2729    0.0000 H       1  UNL11       0.0584
    368 C          27.3827 -110.6171    0.0000 C.3     1  UNL11       0.0738
    369 H          28.1199 -110.9874    0.0000 H       1  UNL11       0.0584
    370 H          28.1199 -110.2468    0.0000 H       1  UNL11       0.0584
    371 O          26.9702 -111.3316    0.0000 O.3     1  UNL11      -0.3518
    372 C          27.3827 -112.0460    0.0000 C.3     1  UNL11       0.1483
    373 H          28.1199 -112.4163    0.0000 H       1  UNL11       0.0871
    374 H          28.1199 -111.6758    0.0000 H       1  UNL11       0.0871
    375 O          26.9702 -112.7605    0.0000 O.3     1  UNL11      -0.3518
    376 C          27.3827 -113.4750    0.0000 C.3     1  UNL11       0.0738
    377 H          28.1199 -113.8452    0.0000 H       1  UNL11       0.0584
    378 H          28.1199 -113.1047    0.0000 H       1  UNL11       0.0584
    379 C          26.9702 -114.1894    0.0000 C.3     1  UNL11       0.0738
    380 H          26.2329 -113.8192    0.0000 H       1  UNL11       0.0584
    381 H          26.2329 -114.5597    0.0000 H       1  UNL11       0.0584
    382 O          27.3827 -114.9039    0.0000 O.3     1  UNL11      -0.3518
    383 C          26.9702 -115.6184    0.0000 C.3     1  UNL11       0.1483
    384 H          26.2329 -115.2481    0.0000 H       1  UNL11       0.0871
    385 H          26.2329 -115.9886    0.0000 H       1  UNL11       0.0871
    386 O          27.3827 -116.3328    0.0000 O.3     1  UNL11      -0.3518
    387 C          26.9702 -117.0473    0.0000 C.3     1  UNL11       0.0738
    388 H          26.2329 -116.6771    0.0000 H       1  UNL11       0.0584
    389 H          26.2329 -117.4176    0.0000 H       1  UNL11       0.0584
    390 C          27.3827 -117.7618    0.0000 C.3     1  UNL11       0.0738
    391 H          28.1199 -118.1321    0.0000 H       1  UNL11       0.0584
    392 H          28.1199 -117.3916    0.0000 H       1  UNL11       0.0584
    393 O          26.9702 -118.4763    0.0000 O.3     1  UNL11      -0.3518
    394 C          27.3827 -119.1908    0.0000 C.3     1  UNL11       0.1483
    395 H          28.1199 -119.5610    0.0000 H       1  UNL11       0.0871
    396 H          28.1199 -118.8205    0.0000 H       1  UNL11       0.0871
    397 O          26.9702 -119.9052    0.0000 O.3     1  UNL11      -0.3518
    398 C          27.3827 -120.6197    0.0000 C.3     1  UNL11       0.0738
    399 H          28.1199 -120.9900    0.0000 H       1  UNL11       0.0584
    400 H          28.1199 -120.2494    0.0000 H       1  UNL11       0.0584
    401 C          26.9702 -121.3341    0.0000 C.3     1  UNL11       0.0738
    402 H          26.2329 -120.9639    0.0000 H       1  UNL11       0.0584
    403 H          26.2329 -121.7044    0.0000 H       1  UNL11       0.0584
    404 O          27.3827 -122.0486    0.0000 O.3     1  UNL11      -0.3518
    405 C          26.9702 -122.7631    0.0000 C.3     1  UNL11       0.1483
    406 H          26.2329 -122.3928    0.0000 H       1  UNL11       0.0871
    407 H          26.2329 -123.1333    0.0000 H       1  UNL11       0.0871
    408 O          27.3827 -123.4775    0.0000 O.3     1  UNL11      -0.3518
    409 C          26.9702 -124.1920    0.0000 C.3     1  UNL11       0.0738
    410 H          26.2329 -123.8218    0.0000 H       1  UNL11       0.0584
    411 H          26.2329 -124.5623    0.0000 H       1  UNL11       0.0584
    412 C          27.3827 -124.9065    0.0000 C.3     1  UNL11       0.0738
    413 H          28.1199 -125.2767    0.0000 H       1  UNL11       0.0584
    414 H          28.1199 -124.5362    0.0000 H       1  UNL11       0.0584
    415 O          26.9702 -125.6210    0.0000 O.3     1  UNL11      -0.3518
    416 C          27.3827 -126.3355    0.0000 C.3     1  UNL11       0.1483
    417 H          28.1199 -126.7057    0.0000 H       1  UNL11       0.0871
    418 H          28.1199 -125.9652    0.0000 H       1  UNL11       0.0871
    419 O          26.9702 -127.0499    0.0000 O.3     1  UNL11      -0.3518
    420 C          27.3827 -127.7644    0.0000 C.3     1  UNL11       0.0738
    421 H          28.1199 -128.1347    0.0000 H       1  UNL11       0.0584
    422 H          28.1199 -127.3941    0.0000 H       1  UNL11       0.0584
    423 C          26.9702 -128.4789    0.0000 C.3     1  UNL11       0.0738
    424 H          26.2329 -128.1086    0.0000 H       1  UNL11       0.0584
    425 H          26.2329 -128.8491    0.0000 H       1  UNL11       0.0584
    426 O          27.3827 -129.1933    0.0000 O.3     1  UNL11      -0.3518
    427 C          26.9702 -129.9078    0.0000 C.3     1  UNL11       0.1483
    428 H          26.2329 -129.5375    0.0000 H       1  UNL11       0.0871
    429 H          26.2329 -130.2781    0.0000 H       1  UNL11       0.0871
    430 O          27.3827 -130.6223    0.0000 O.3     1  UNL11      -0.3518
    431 C          26.9702 -131.3367    0.0000 C.3     1  UNL11       0.0738
    432 H          26.2329 -130.9665    0.0000 H       1  UNL11       0.0584
    433 H          26.2329 -131.7070    0.0000 H       1  UNL11       0.0584
    434 C          27.3827 -132.0512    0.0000 C.3     1  UNL11       0.0738
    435 H          28.1199 -132.4215    0.0000 H       1  UNL11       0.0584
    436 H          28.1199 -131.6809    0.0000 H       1  UNL11       0.0584
    437 O          26.9702 -132.7657    0.0000 O.3     1  UNL11      -0.3518
    438 C          27.3827 -133.4801    0.0000 C.3     1  UNL11       0.1483
    439 H          28.1199 -133.8504    0.0000 H       1  UNL11       0.0871
    440 H          28.1199 -133.1099    0.0000 H       1  UNL11       0.0871
    441 O          26.9702 -134.1946    0.0000 O.3     1  UNL11      -0.3518
    442 C          27.3827 -134.9091    0.0000 C.3     1  UNL11       0.0738
    443 H          28.1199 -135.2794    0.0000 H       1  UNL11       0.0584
    444 H          28.1199 -134.5389    0.0000 H       1  UNL11       0.0584
    445 C          26.9702 -135.6236    0.0000 C.3     1  UNL11       0.0738
    446 H          26.2329 -135.2533    0.0000 H       1  UNL11       0.0584
    447 H          26.2329 -135.9938    0.0000 H       1  UNL11       0.0584
    448 O          27.3827 -136.3381    0.0000 O.3     1  UNL11      -0.3518
    449 C          26.9702 -137.0525    0.0000 C.3     1  UNL11       0.1483
    450 H          26.2329 -136.6823    0.0000 H       1  UNL11       0.0871
    451 H          26.2329 -137.4228    0.0000 H       1  UNL11       0.0871
    452 O          27.3827 -137.7670    0.0000 O.3     1  UNL11      -0.3518
    453 C          26.9702 -138.4815    0.0000 C.3     1  UNL11       0.0738
    454 H          26.2329 -138.1112    0.0000 H       1  UNL11       0.0584
    455 H          26.2329 -138.8517    0.0000 H       1  UNL11       0.0584
    456 C          27.3827 -139.1959    0.0000 C.3     1  UNL11       0.0738
    457 H          28.1199 -139.5662    0.0000 H       1  UNL11       0.0584
    458 H          28.1199 -138.8256    0.0000 H       1  UNL11       0.0584
    459 O          26.9702 -139.9104    0.0000 O.3     1  UNL11      -0.3518
    460 C          27.3827 -140.6248    0.0000 C.3     1  UNL11       0.1483
    461 H          28.1199 -140.9951    0.0000 H       1  UNL11       0.0871
    462 H          28.1199 -140.2546    0.0000 H       1  UNL11       0.0871
    463 O          26.9702 -141.3393    0.0000 O.3     1  UNL11      -0.3518
    464 C          27.3827 -142.0538    0.0000 C.3     1  UNL11       0.0738
    465 H          28.1199 -142.4240    0.0000 H       1  UNL11       0.0584
    466 H          28.1199 -141.6835    0.0000 H       1  UNL11       0.0584
    467 C          26.9702 -142.7683    0.0000 C.3     1  UNL11       0.0738
    468 H          26.2329 -142.3980    0.0000 H       1  UNL11       0.0584
    469 H          26.2329 -143.1385    0.0000 H       1  UNL11       0.0584
    470 O          27.3827 -143.4828    0.0000 O.3     1  UNL11      -0.3518
    471 C          26.9702 -144.1972    0.0000 C.3     1  UNL11       0.1483
    472 H          26.2329 -143.8270    0.0000 H       1  UNL11       0.0871
    473 H          26.2329 -144.5675    0.0000 H       1  UNL11       0.0871
    474 O          27.3827 -144.9117    0.0000 O.3     1  UNL11      -0.3518
    475 C          26.9702 -145.6262    0.0000 C.3     1  UNL11       0.0738
    476 H          26.2329 -145.2559    0.0000 H       1  UNL11       0.0584
    477 H          26.2329 -145.9964    0.0000 H       1  UNL11       0.0584
    478 C          27.3827 -146.3406    0.0000 C.3     1  UNL11       0.0738
    479 H          28.1199 -146.7109    0.0000 H       1  UNL11       0.0584
    480 H          28.1199 -145.9704    0.0000 H       1  UNL11       0.0584
    481 O          26.9702 -147.0551    0.0000 O.3     1  UNL11      -0.3518
    482 C          27.3827 -147.7696    0.0000 C.3     1  UNL11       0.1483
    483 H          28.1199 -148.1398    0.0000 H       1  UNL11       0.0871
    484 H          28.1199 -147.3993    0.0000 H       1  UNL11       0.0871
    485 O          26.9702 -148.4840    0.0000 O.3     1  UNL11      -0.3518
    486 C          27.3827 -149.1985    0.0000 C.3     1  UNL11       0.0738
    487 H          28.1199 -149.5688    0.0000 H       1  UNL11       0.0584
    488 H          28.1199 -148.8282    0.0000 H       1  UNL11       0.0584
    489 C          26.9702 -149.9130    0.0000 C.3     1  UNL11       0.0738
    490 H          26.2329 -149.5427    0.0000 H       1  UNL11       0.0584
    491 H          26.2329 -150.2832    0.0000 H       1  UNL11       0.0584
    492 O          27.3827 -150.6274    0.0000 O.3     1  UNL11      -0.3518
    493 C          26.9702 -151.3419    0.0000 C.3     1  UNL11       0.1483
    494 H          26.2329 -150.9717    0.0000 H       1  UNL11       0.0871
    495 H          26.2329 -151.7122    0.0000 H       1  UNL11       0.0871
    496 O          27.3827 -152.0564    0.0000 O.3     1  UNL11      -0.3518
    497 C          26.9702 -152.7709    0.0000 C.3     1  UNL11       0.0738
    498 H          26.2329 -152.4006    0.0000 H       1  UNL11       0.0584
    499 H          26.2329 -153.1411    0.0000 H       1  UNL11       0.0584
    500 C          27.3827 -153.4854    0.0000 C.3     1  UNL11       0.0738
    501 H          28.1199 -153.8556    0.0000 H       1  UNL11       0.0584
    502 H          28.1199 -153.1151    0.0000 H       1  UNL11       0.0584
    503 O          26.9702 -154.1998    0.0000 O.3     1  UNL11      -0.3518
    504 C          27.3827 -154.9143    0.0000 C.3     1  UNL11       0.1483
    505 H          28.1199 -155.2846    0.0000 H       1  UNL11       0.0871
    506 H          28.1199 -154.5440    0.0000 H       1  UNL11       0.0871
    507 O          26.9702 -155.6288    0.0000 O.3     1  UNL11      -0.3518
    508 C          27.3827 -156.3432    0.0000 C.3     1  UNL11       0.0738
    509 H          28.1199 -156.7135    0.0000 H       1  UNL11       0.0584
    510 H          28.1199 -155.9730    0.0000 H       1  UNL11       0.0584
    511 C          26.9702 -157.0577    0.0000 C.3     1  UNL11       0.0738
    512 H          26.2329 -156.6874    0.0000 H       1  UNL11       0.0584
    513 H          26.2329 -157.4280    0.0000 H       1  UNL11       0.0584
    514 O          27.3827 -157.7721    0.0000 O.3     1  UNL11      -0.3518
    515 C          26.9702 -158.4866    0.0000 C.3     1  UNL11       0.1483
    516 H          26.2329 -158.1164    0.0000 H       1  UNL11       0.0871
    517 H          26.2329 -158.8569    0.0000 H       1  UNL11       0.0871
    518 O          27.3827 -159.2011    0.0000 O.3     1  UNL11      -0.3518
    519 C          26.9702 -159.9156    0.0000 C.3     1  UNL11       0.0738
    520 H          26.2329 -159.5453    0.0000 H       1  UNL11       0.0584
    521 H          26.2329 -160.2858    0.0000 H       1  UNL11       0.0584
    522 C          27.3827 -160.6301    0.0000 C.3     1  UNL11       0.0738
    523 H          28.1199 -161.0003    0.0000 H       1  UNL11       0.0584
    524 H          28.1199 -160.2598    0.0000 H       1  UNL11       0.0584
    525 O          26.9702 -161.3445    0.0000 O.3     1  UNL11      -0.3518
    526 C          27.3827 -162.0590    0.0000 C.3     1  UNL11       0.1483
    527 H          28.1199 -162.4293    0.0000 H       1  UNL11       0.0871
    528 H          28.1199 -161.6888    0.0000 H       1  UNL11       0.0871
    529 O          26.9702 -162.7735    0.0000 O.3     1  UNL11      -0.3518
    530 C          27.3827 -163.4880    0.0000 C.3     1  UNL11       0.0738
    531 H          28.1199 -163.8582    0.0000 H       1  UNL11       0.0584
    532 H          28.1199 -163.1177    0.0000 H       1  UNL11       0.0584
    533 C          26.9702 -164.2024    0.0000 C.3     1  UNL11       0.0738
    534 H          26.2329 -163.8321    0.0000 H       1  UNL11       0.0584
    535 H          26.2329 -164.5727    0.0000 H       1  UNL11       0.0584
    536 O          27.3827 -164.9169    0.0000 O.3     1  UNL11      -0.3518
    537 C          26.9702 -165.6313    0.0000 C.3     1  UNL11       0.1483
    538 H          26.2329 -165.2611    0.0000 H       1  UNL11       0.0871
    539 H          26.2329 -166.0016    0.0000 H       1  UNL11       0.0871
    540 O          27.3827 -166.3458    0.0000 O.3     1  UNL11      -0.3518
    541 C          26.9702 -167.0603    0.0000 C.3     1  UNL11       0.0738
    542 H          26.2329 -166.6900    0.0000 H       1  UNL11       0.0584
    543 H          26.2329 -167.4305    0.0000 H       1  UNL11       0.0584
    544 C          27.3827 -167.7747    0.0000 C.3     1  UNL11       0.0739
    545 H          28.1199 -168.1450    0.0000 H       1  UNL11       0.0584
    546 H          28.1199 -167.4045    0.0000 H       1  UNL11       0.0584
    547 O          26.9702 -168.4892    0.0000 O.3     1  UNL11      -0.3488
    548 C          27.3827 -169.2037    0.0000 C.3     1  UNL11       0.1819
    549 H          28.1199 -169.5740    0.0000 H       1  UNL11       0.0902
    550 H          28.1199 -168.8334    0.0000 H       1  UNL11       0.0902
    551 O          26.9702 -169.9182    0.0000 O.3     1  UNL11      -0.2037
    552 O          27.3827 -170.6327    0.0000 O.3     1  UNL11      -0.1978
    553 C          26.9702 -171.3471    0.0000 C.3     1  UNL11       0.2214
    554 H          26.5847 -170.6177    0.0000 H       1  UNL11       0.0968
    555 O          27.4349 -172.0287    0.0000 O.3     1  UNL11      -0.3383
    556 C          27.1917 -172.8171    0.0000 C.3     1  UNL11       0.1131
    557 H          27.0384 -173.6277    0.0000 H       1  UNL11       0.0647
    558 C          27.7965 -173.3783    0.0000 C.3     1  UNL11       0.0730
    559 H          27.6229 -174.1848    0.0000 H       1  UNL11       0.0584
    560 H          28.4048 -173.9356    0.0000 H       1  UNL11       0.0584
    561 O          28.5849 -173.1351    0.0000 O.3     1  UNL11      -0.3924
    562 H          29.1451 -172.5294    0.0000 H       1  UNL11       0.2095
    563 C          26.4237 -173.1185    0.0000 C.3     1  UNL11       0.1118
    564 H          25.6944 -173.5040    0.0000 H       1  UNL11       0.0647
    565 O          26.3621 -173.9412    0.0000 O.3     1  UNL11      -0.3865
    566 H          26.3021 -174.7640    0.0000 H       1  UNL11       0.2100
    567 C          25.7093 -172.7060    0.0000 C.3     1  UNL11       0.1119
    568 H          24.9531 -172.3761    0.0000 H       1  UNL11       0.0647
    569 O          25.0277 -173.1708    0.0000 O.3     1  UNL11      -0.3865
    570 H          24.3469 -173.6368    0.0000 H       1  UNL11       0.2100
    571 C          25.5863 -171.8903    0.0000 C.3     1  UNL11       0.1142
    572 H          25.3728 -171.0933    0.0000 H       1  UNL11       0.0648
    573 O          24.7980 -171.6470    0.0000 O.3     1  UNL11      -0.3864
    574 H          24.0092 -171.4054    0.0000 H       1  UNL11       0.2100
    575 C          26.1475 -171.2855    0.0000 C.3     1  UNL11       0.1369
    576 H          26.4489 -172.0534    0.0000 H       1  UNL11       0.0672
    577 O          25.8461 -170.5175    0.0000 O.3     1  UNL11      -0.3840
    578 H          25.5447 -169.7495    0.0000 H       1  UNL11       0.2101
    579 C          25.0182  -84.4836    0.0000 C.3     1  UNL11       0.0701
    580 H          24.1946  -84.5316    0.0000 H       1  UNL11       0.0580
    581 H          24.5649  -85.1729    0.0000 H       1  UNL11       0.0580
    582 O          25.0182  -83.6586    0.0000 O.3     1  UNL11      -0.3755
    583 C          25.7327  -83.2461    0.0000 C.3     1  UNL11       0.0712
    584 H          26.1029  -82.5089    0.0000 H       1  UNL11       0.0583
    585 H          25.3624  -82.5089    0.0000 H       1  UNL11       0.0583
    586 C          26.4471  -83.6586    0.0000 C.3     1  UNL11       0.0737
    587 H          26.7293  -82.8834    0.0000 H       1  UNL11       0.0584
    588 H          26.1650  -82.8834    0.0000 H       1  UNL11       0.0584
    589 O          27.1616  -83.2461    0.0000 O.3     1  UNL11      -0.3518
    590 C          27.8761  -83.6586    0.0000 C.3     1  UNL11       0.1483
    591 H          27.2247  -84.1648    0.0000 H       1  UNL11       0.0871
    592 H          27.8761  -82.8336    0.0000 H       1  UNL11       0.0871
    593 O          28.5905  -83.2461    0.0000 O.3     1  UNL11      -0.3518
    594 C          29.3050  -83.6586    0.0000 C.3     1  UNL11       0.0738
    595 H          28.9347  -84.3959    0.0000 H       1  UNL11       0.0584
    596 H          29.6753  -84.3959    0.0000 H       1  UNL11       0.0584
    597 C          30.0195  -83.2461    0.0000 C.3     1  UNL11       0.0738
    598 H          30.3897  -82.5089    0.0000 H       1  UNL11       0.0584
    599 H          29.6492  -82.5089    0.0000 H       1  UNL11       0.0584
    600 O          30.7340  -83.6586    0.0000 O.3     1  UNL11      -0.3518
    601 C          31.4484  -83.2461    0.0000 C.3     1  UNL11       0.1483
    602 H          31.8187  -82.5089    0.0000 H       1  UNL11       0.0871
    603 H          31.0782  -82.5089    0.0000 H       1  UNL11       0.0871
    604 O          32.1629  -83.6586    0.0000 O.3     1  UNL11      -0.3518
    605 C          32.8774  -83.2461    0.0000 C.3     1  UNL11       0.0738
    606 H          33.2476  -82.5089    0.0000 H       1  UNL11       0.0584
    607 H          32.5071  -82.5089    0.0000 H       1  UNL11       0.0584
    608 C          33.5919  -83.6586    0.0000 C.3     1  UNL11       0.0738
    609 H          33.2216  -84.3959    0.0000 H       1  UNL11       0.0584
    610 H          33.9621  -84.3959    0.0000 H       1  UNL11       0.0584
    611 O          34.3063  -83.2461    0.0000 O.3     1  UNL11      -0.3518
    612 C          35.0208  -83.6586    0.0000 C.3     1  UNL11       0.1483
    613 H          34.6505  -84.3959    0.0000 H       1  UNL11       0.0871
    614 H          35.3911  -84.3959    0.0000 H       1  UNL11       0.0871
    615 O          35.7353  -83.2461    0.0000 O.3     1  UNL11      -0.3518
    616 C          36.4497  -83.6586    0.0000 C.3     1  UNL11       0.0738
    617 H          36.0795  -84.3959    0.0000 H       1  UNL11       0.0584
    618 H          36.8200  -84.3959    0.0000 H       1  UNL11       0.0584
    619 C          37.1642  -83.2461    0.0000 C.3     1  UNL11       0.0738
    620 H          37.5345  -82.5089    0.0000 H       1  UNL11       0.0584
    621 H          36.7939  -82.5089    0.0000 H       1  UNL11       0.0584
    622 O          37.8786  -83.6586    0.0000 O.3     1  UNL11      -0.3518
    623 C          38.5931  -83.2461    0.0000 C.3     1  UNL11       0.1483
    624 H          38.9634  -82.5089    0.0000 H       1  UNL11       0.0871
    625 H          38.2229  -82.5089    0.0000 H       1  UNL11       0.0871
    626 O          39.3076  -83.6586    0.0000 O.3     1  UNL11      -0.3518
    627 C          40.0221  -83.2461    0.0000 C.3     1  UNL11       0.0738
    628 H          40.3923  -82.5089    0.0000 H       1  UNL11       0.0584
    629 H          39.6518  -82.5089    0.0000 H       1  UNL11       0.0584
    630 C          40.7366  -83.6586    0.0000 C.3     1  UNL11       0.0738
    631 H          40.3663  -84.3959    0.0000 H       1  UNL11       0.0584
    632 H          41.1068  -84.3959    0.0000 H       1  UNL11       0.0584
    633 O          41.4510  -83.2461    0.0000 O.3     1  UNL11      -0.3518
    634 C          42.1655  -83.6586    0.0000 C.3     1  UNL11       0.1483
    635 H          41.7953  -84.3959    0.0000 H       1  UNL11       0.0871
    636 H          42.5358  -84.3959    0.0000 H       1  UNL11       0.0871
    637 O          42.8800  -83.2461    0.0000 O.3     1  UNL11      -0.3518
    638 C          43.5945  -83.6586    0.0000 C.3     1  UNL11       0.0738
    639 H          43.2242  -84.3959    0.0000 H       1  UNL11       0.0584
    640 H          43.9647  -84.3959    0.0000 H       1  UNL11       0.0584
    641 C          44.3089  -83.2461    0.0000 C.3     1  UNL11       0.0738
    642 H          44.6792  -82.5089    0.0000 H       1  UNL11       0.0584
    643 H          43.9386  -82.5089    0.0000 H       1  UNL11       0.0584
    644 O          45.0234  -83.6586    0.0000 O.3     1  UNL11      -0.3518
    645 C          45.7378  -83.2461    0.0000 C.3     1  UNL11       0.1483
    646 H          46.1081  -82.5089    0.0000 H       1  UNL11       0.0871
    647 H          45.3676  -82.5089    0.0000 H       1  UNL11       0.0871
    648 O          46.4523  -83.6586    0.0000 O.3     1  UNL11      -0.3518
    649 C          47.1668  -83.2461    0.0000 C.3     1  UNL11       0.0738
    650 H          47.5370  -82.5089    0.0000 H       1  UNL11       0.0584
    651 H          46.7965  -82.5089    0.0000 H       1  UNL11       0.0584
    652 C          47.8812  -83.6586    0.0000 C.3     1  UNL11       0.0738
    653 H          47.5110  -84.3959    0.0000 H       1  UNL11       0.0584
    654 H          48.2515  -84.3959    0.0000 H       1  UNL11       0.0584
    655 O          48.5957  -83.2461    0.0000 O.3     1  UNL11      -0.3518
    656 C          49.3102  -83.6586    0.0000 C.3     1  UNL11       0.1483
    657 H          48.9400  -84.3959    0.0000 H       1  UNL11       0.0871
    658 H          49.6805  -84.3959    0.0000 H       1  UNL11       0.0871
    659 O          50.0247  -83.2461    0.0000 O.3     1  UNL11      -0.3518
    660 C          50.7392  -83.6586    0.0000 C.3     1  UNL11       0.0738
    661 H          50.3689  -84.3959    0.0000 H       1  UNL11       0.0584
    662 H          51.1094  -84.3959    0.0000 H       1  UNL11       0.0584
    663 C          51.4536  -83.2461    0.0000 C.3     1  UNL11       0.0738
    664 H          51.8239  -82.5089    0.0000 H       1  UNL11       0.0584
    665 H          51.0834  -82.5089    0.0000 H       1  UNL11       0.0584
    666 O          52.1681  -83.6586    0.0000 O.3     1  UNL11      -0.3518
    667 C          52.8826  -83.2461    0.0000 C.3     1  UNL11       0.1483
    668 H          53.2528  -82.5089    0.0000 H       1  UNL11       0.0871
    669 H          52.5123  -82.5089    0.0000 H       1  UNL11       0.0871
    670 O          53.5970  -83.6586    0.0000 O.3     1  UNL11      -0.3518
    671 C          54.3115  -83.2461    0.0000 C.3     1  UNL11       0.0738
    672 H          54.6818  -82.5089    0.0000 H       1  UNL11       0.0584
    673 H          53.9412  -82.5089    0.0000 H       1  UNL11       0.0584
    674 C          55.0260  -83.6586    0.0000 C.3     1  UNL11       0.0738
    675 H          54.6557  -84.3959    0.0000 H       1  UNL11       0.0584
    676 H          55.3962  -84.3959    0.0000 H       1  UNL11       0.0584
    677 O          55.7404  -83.2461    0.0000 O.3     1  UNL11      -0.3518
    678 C          56.4549  -83.6586    0.0000 C.3     1  UNL11       0.1483
    679 H          56.0846  -84.3959    0.0000 H       1  UNL11       0.0871
    680 H          56.8251  -84.3959    0.0000 H       1  UNL11       0.0871
    681 O          57.1694  -83.2461    0.0000 O.3     1  UNL11      -0.3518
    682 C          57.8839  -83.6586    0.0000 C.3     1  UNL11       0.0738
    683 H          57.5136  -84.3959    0.0000 H       1  UNL11       0.0584
    684 H          58.2541  -84.3959    0.0000 H       1  UNL11       0.0584
    685 C          58.5983  -83.2461    0.0000 C.3     1  UNL11       0.0738
    686 H          58.9686  -82.5089    0.0000 H       1  UNL11       0.0584
    687 H          58.2281  -82.5089    0.0000 H       1  UNL11       0.0584
    688 O          59.3128  -83.6586    0.0000 O.3     1  UNL11      -0.3518
    689 C          60.0273  -83.2461    0.0000 C.3     1  UNL11       0.1483
    690 H          60.3975  -82.5089    0.0000 H       1  UNL11       0.0871
    691 H          59.6570  -82.5089    0.0000 H       1  UNL11       0.0871
    692 O          60.7418  -83.6586    0.0000 O.3     1  UNL11      -0.3518
    693 C          61.4562  -83.2461    0.0000 C.3     1  UNL11       0.0738
    694 H          61.8265  -82.5089    0.0000 H       1  UNL11       0.0584
    695 H          61.0860  -82.5089    0.0000 H       1  UNL11       0.0584
    696 C          62.1707  -83.6586    0.0000 C.3     1  UNL11       0.0738
    697 H          61.8004  -84.3959    0.0000 H       1  UNL11       0.0584
    698 H          62.5410  -84.3959    0.0000 H       1  UNL11       0.0584
    699 O          62.8851  -83.2461    0.0000 O.3     1  UNL11      -0.3518
    700 C          63.5996  -83.6586    0.0000 C.3     1  UNL11       0.1483
    701 H          63.2293  -84.3959    0.0000 H       1  UNL11       0.0871
    702 H          63.9699  -84.3959    0.0000 H       1  UNL11       0.0871
    703 O          64.3141  -83.2461    0.0000 O.3     1  UNL11      -0.3518
    704 C          65.0285  -83.6586    0.0000 C.3     1  UNL11       0.0738
    705 H          64.6583  -84.3959    0.0000 H       1  UNL11       0.0584
    706 H          65.3988  -84.3959    0.0000 H       1  UNL11       0.0584
    707 C          65.7430  -83.2461    0.0000 C.3     1  UNL11       0.0738
    708 H          66.1133  -82.5089    0.0000 H       1  UNL11       0.0584
    709 H          65.3728  -82.5089    0.0000 H       1  UNL11       0.0584
    710 O          66.4575  -83.6586    0.0000 O.3     1  UNL11      -0.3518
    711 C          67.1720  -83.2461    0.0000 C.3     1  UNL11       0.1483
    712 H          67.5422  -82.5089    0.0000 H       1  UNL11       0.0871
    713 H          66.8017  -82.5089    0.0000 H       1  UNL11       0.0871
    714 O          67.8865  -83.6586    0.0000 O.3     1  UNL11      -0.3518
    715 C          68.6009  -83.2461    0.0000 C.3     1  UNL11       0.0738
    716 H          68.9712  -82.5089    0.0000 H       1  UNL11       0.0584
    717 H          68.2307  -82.5089    0.0000 H       1  UNL11       0.0584
    718 C          69.3154  -83.6586    0.0000 C.3     1  UNL11       0.0738
    719 H          68.9451  -84.3959    0.0000 H       1  UNL11       0.0584
    720 H          69.6857  -84.3959    0.0000 H       1  UNL11       0.0584
    721 O          70.0299  -83.2461    0.0000 O.3     1  UNL11      -0.3518
    722 C          70.7443  -83.6586    0.0000 C.3     1  UNL11       0.1483
    723 H          70.3741  -84.3959    0.0000 H       1  UNL11       0.0871
    724 H          71.1146  -84.3959    0.0000 H       1  UNL11       0.0871
    725 O          71.4588  -83.2461    0.0000 O.3     1  UNL11      -0.3518
    726 C          72.1733  -83.6586    0.0000 C.3     1  UNL11       0.0738
    727 H          71.8030  -84.3959    0.0000 H       1  UNL11       0.0584
    728 H          72.5435  -84.3959    0.0000 H       1  UNL11       0.0584
    729 C          72.8877  -83.2461    0.0000 C.3     1  UNL11       0.0738
    730 H          73.2580  -82.5089    0.0000 H       1  UNL11       0.0584
    731 H          72.5175  -82.5089    0.0000 H       1  UNL11       0.0584
    732 O          73.6022  -83.6586    0.0000 O.3     1  UNL11      -0.3518
    733 C          74.3167  -83.2461    0.0000 C.3     1  UNL11       0.1483
    734 H          74.6869  -82.5089    0.0000 H       1  UNL11       0.0871
    735 H          73.9464  -82.5089    0.0000 H       1  UNL11       0.0871
    736 O          75.0312  -83.6586    0.0000 O.3     1  UNL11      -0.3518
    737 C          75.7456  -83.2461    0.0000 C.3     1  UNL11       0.0738
    738 H          76.1159  -82.5089    0.0000 H       1  UNL11       0.0584
    739 H          75.3754  -82.5089    0.0000 H       1  UNL11       0.0584
    740 C          76.4601  -83.6586    0.0000 C.3     1  UNL11       0.0738
    741 H          76.0899  -84.3959    0.0000 H       1  UNL11       0.0584
    742 H          76.8304  -84.3959    0.0000 H       1  UNL11       0.0584
    743 O          77.1746  -83.2461    0.0000 O.3     1  UNL11      -0.3518
    744 C          77.8891  -83.6586    0.0000 C.3     1  UNL11       0.1483
    745 H          77.5188  -84.3959    0.0000 H       1  UNL11       0.0871
    746 H          78.2593  -84.3959    0.0000 H       1  UNL11       0.0871
    747 O          78.6035  -83.2461    0.0000 O.3     1  UNL11      -0.3518
    748 C          79.3180  -83.6586    0.0000 C.3     1  UNL11       0.0738
    749 H          78.9477  -84.3959    0.0000 H       1  UNL11       0.0584
    750 H          79.6883  -84.3959    0.0000 H       1  UNL11       0.0584
    751 C          80.0325  -83.2461    0.0000 C.3     1  UNL11       0.0738
    752 H          80.4027  -82.5089    0.0000 H       1  UNL11       0.0584
    753 H          79.6622  -82.5089    0.0000 H       1  UNL11       0.0584
    754 O          80.7469  -83.6586    0.0000 O.3     1  UNL11      -0.3518
    755 C          81.4614  -83.2461    0.0000 C.3     1  UNL11       0.1483
    756 H          81.8316  -82.5089    0.0000 H       1  UNL11       0.0871
    757 H          81.0911  -82.5089    0.0000 H       1  UNL11       0.0871
    758 O          82.1758  -83.6586    0.0000 O.3     1  UNL11      -0.3518
    759 C          82.8903  -83.2461    0.0000 C.3     1  UNL11       0.0738
    760 H          83.2606  -82.5089    0.0000 H       1  UNL11       0.0584
    761 H          82.5201  -82.5089    0.0000 H       1  UNL11       0.0584
    762 C          83.6048  -83.6586    0.0000 C.3     1  UNL11       0.0738
    763 H          83.2346  -84.3959    0.0000 H       1  UNL11       0.0584
    764 H          83.9751  -84.3959    0.0000 H       1  UNL11       0.0584
    765 O          84.3193  -83.2461    0.0000 O.3     1  UNL11      -0.3518
    766 C          85.0338  -83.6586    0.0000 C.3     1  UNL11       0.1483
    767 H          84.6635  -84.3959    0.0000 H       1  UNL11       0.0871
    768 H          85.4040  -84.3959    0.0000 H       1  UNL11       0.0871
    769 O          85.7482  -83.2461    0.0000 O.3     1  UNL11      -0.3518
    770 C          86.4627  -83.6586    0.0000 C.3     1  UNL11       0.0738
    771 H          86.0925  -84.3959    0.0000 H       1  UNL11       0.0584
    772 H          86.8330  -84.3959    0.0000 H       1  UNL11       0.0584
    773 C          87.1772  -83.2461    0.0000 C.3     1  UNL11       0.0738
    774 H          87.5475  -82.5089    0.0000 H       1  UNL11       0.0584
    775 H          86.8069  -82.5089    0.0000 H       1  UNL11       0.0584
    776 O          87.8916  -83.6586    0.0000 O.3     1  UNL11      -0.3518
    777 C          88.6061  -83.2461    0.0000 C.3     1  UNL11       0.1483
    778 H          88.9764  -82.5089    0.0000 H       1  UNL11       0.0871
    779 H          88.2358  -82.5089    0.0000 H       1  UNL11       0.0871
    780 O          89.3206  -83.6586    0.0000 O.3     1  UNL11      -0.3518
    781 C          90.0350  -83.2461    0.0000 C.3     1  UNL11       0.0738
    782 H          90.4053  -82.5089    0.0000 H       1  UNL11       0.0584
    783 H          89.6648  -82.5089    0.0000 H       1  UNL11       0.0584
    784 C          90.7495  -83.6586    0.0000 C.3     1  UNL11       0.0738
    785 H          90.3792  -84.3959    0.0000 H       1  UNL11       0.0584
    786 H          91.1198  -84.3959    0.0000 H       1  UNL11       0.0584
    787 O          91.4640  -83.2461    0.0000 O.3     1  UNL11      -0.3518
    788 C          92.1785  -83.6586    0.0000 C.3     1  UNL11       0.1483
    789 H          91.8082  -84.3959    0.0000 H       1  UNL11       0.0871
    790 H          92.5487  -84.3959    0.0000 H       1  UNL11       0.0871
    791 O          92.8929  -83.2461    0.0000 O.3     1  UNL11      -0.3518
    792 C          93.6074  -83.6586    0.0000 C.3     1  UNL11       0.0738
    793 H          93.2372  -84.3959    0.0000 H       1  UNL11       0.0584
    794 H          93.9777  -84.3959    0.0000 H       1  UNL11       0.0584
    795 C          94.3219  -83.2461    0.0000 C.3     1  UNL11       0.0738
    796 H          94.6921  -82.5089    0.0000 H       1  UNL11       0.0584
    797 H          93.9516  -82.5089    0.0000 H       1  UNL11       0.0584
    798 O          95.0364  -83.6586    0.0000 O.3     1  UNL11      -0.3518
    799 C          95.7508  -83.2461    0.0000 C.3     1  UNL11       0.1483
    800 H          96.1211  -82.5089    0.0000 H       1  UNL11       0.0871
    801 H          95.3806  -82.5089    0.0000 H       1  UNL11       0.0871
    802 O          96.4653  -83.6586    0.0000 O.3     1  UNL11      -0.3518
    803 C          97.1798  -83.2461    0.0000 C.3     1  UNL11       0.0738
    804 H          97.5500  -82.5089    0.0000 H       1  UNL11       0.0584
    805 H          96.8095  -82.5089    0.0000 H       1  UNL11       0.0584
    806 C          97.8942  -83.6586    0.0000 C.3     1  UNL11       0.0738
    807 H          97.5240  -84.3959    0.0000 H       1  UNL11       0.0584
    808 H          98.2645  -84.3959    0.0000 H       1  UNL11       0.0584
    809 O          98.6087  -83.2461    0.0000 O.3     1  UNL11      -0.3518
    810 C          99.3231  -83.6586    0.0000 C.3     1  UNL11       0.1483
    811 H          98.9529  -84.3959    0.0000 H       1  UNL11       0.0871
    812 H          99.6934  -84.3959    0.0000 H       1  UNL11       0.0871
    813 O         100.0376  -83.2461    0.0000 O.3     1  UNL11      -0.3518
    814 C         100.7521  -83.6586    0.0000 C.3     1  UNL11       0.0738
    815 H         100.3819  -84.3959    0.0000 H       1  UNL11       0.0584
    816 H         101.1224  -84.3959    0.0000 H       1  UNL11       0.0584
    817 C         101.4666  -83.2461    0.0000 C.3     1  UNL11       0.0738
    818 H         101.8368  -82.5089    0.0000 H       1  UNL11       0.0584
    819 H         101.0963  -82.5089    0.0000 H       1  UNL11       0.0584
    820 O         102.1811  -83.6586    0.0000 O.3     1  UNL11      -0.3518
    821 C         102.8955  -83.2461    0.0000 C.3     1  UNL11       0.1483
    822 H         103.2658  -82.5089    0.0000 H       1  UNL11       0.0871
    823 H         102.5253  -82.5089    0.0000 H       1  UNL11       0.0871
    824 O         103.6100  -83.6586    0.0000 O.3     1  UNL11      -0.3518
    825 C         104.3245  -83.2461    0.0000 C.3     1  UNL11       0.0738
    826 H         104.6948  -82.5089    0.0000 H       1  UNL11       0.0584
    827 H         103.9542  -82.5089    0.0000 H       1  UNL11       0.0584
    828 C         105.0390  -83.6586    0.0000 C.3     1  UNL11       0.0738
    829 H         104.6687  -84.3959    0.0000 H       1  UNL11       0.0584
    830 H         105.4092  -84.3959    0.0000 H       1  UNL11       0.0584
    831 O         105.7534  -83.2461    0.0000 O.3     1  UNL11      -0.3518
    832 C         106.4679  -83.6586    0.0000 C.3     1  UNL11       0.1483
    833 H         106.0976  -84.3959    0.0000 H       1  UNL11       0.0871
    834 H         106.8381  -84.3959    0.0000 H       1  UNL11       0.0871
    835 O         107.1823  -83.2461    0.0000 O.3     1  UNL11      -0.3518
    836 C         107.8968  -83.6586    0.0000 C.3     1  UNL11       0.0738
    837 H         107.5265  -84.3959    0.0000 H       1  UNL11       0.0584
    838 H         108.2671  -84.3959    0.0000 H       1  UNL11       0.0584
    839 C         108.6113  -83.2461    0.0000 C.3     1  UNL11       0.0739
    840 H         108.9815  -82.5089    0.0000 H       1  UNL11       0.0584
    841 H         108.2410  -82.5089    0.0000 H       1  UNL11       0.0584
    842 O         109.3258  -83.6586    0.0000 O.3     1  UNL11      -0.3488
    843 C         110.0402  -83.2461    0.0000 C.3     1  UNL11       0.1819
    844 H         110.4105  -82.5089    0.0000 H       1  UNL11       0.0902
    845 H         109.6700  -82.5089    0.0000 H       1  UNL11       0.0902
    846 O         110.7547  -83.6586    0.0000 O.3     1  UNL11      -0.2037
    847 O         111.4692  -83.2461    0.0000 O.3     1  UNL11      -0.1978
    848 C         112.1837  -83.6586    0.0000 C.3     1  UNL11       0.2214
    849 H         111.4542  -84.0441    0.0000 H       1  UNL11       0.0968
    850 O         112.8653  -83.1939    0.0000 O.3     1  UNL11      -0.3383
    851 C         113.6537  -83.4371    0.0000 C.3     1  UNL11       0.1131
    852 H         114.4643  -83.5905    0.0000 H       1  UNL11       0.0647
    853 C         114.2148  -82.8323    0.0000 C.3     1  UNL11       0.0730
    854 H         114.3513  -82.0187    0.0000 H       1  UNL11       0.0584
    855 H         113.6436  -82.2369    0.0000 H       1  UNL11       0.0584
    856 O         115.0191  -83.0159    0.0000 O.3     1  UNL11      -0.3924
    857 H         115.8098  -82.7806    0.0000 H       1  UNL11       0.2095
    858 C         113.9551  -84.2050    0.0000 C.3     1  UNL11       0.1118
    859 H         114.3406  -84.9345    0.0000 H       1  UNL11       0.0647
    860 O         114.7778  -84.2667    0.0000 O.3     1  UNL11      -0.3865
    861 H         115.6006  -84.3267    0.0000 H       1  UNL11       0.2100
    862 C         113.5426  -84.9195    0.0000 C.3     1  UNL11       0.1119
    863 H         113.2127  -85.6757    0.0000 H       1  UNL11       0.0647
    864 O         114.0073  -85.6011    0.0000 O.3     1  UNL11      -0.3865
    865 H         114.4734  -86.2819    0.0000 H       1  UNL11       0.2100
    866 C         112.7268  -85.0425    0.0000 C.3     1  UNL11       0.1142
    867 H         111.9299  -85.2560    0.0000 H       1  UNL11       0.0648
    868 O         112.4836  -85.8308    0.0000 O.3     1  UNL11      -0.3864
    869 H         112.2420  -86.6196    0.0000 H       1  UNL11       0.2100
    870 C         112.1220  -84.4813    0.0000 C.3     1  UNL11       0.1369
    871 H         112.8900  -84.1799    0.0000 H       1  UNL11       0.0672
    872 O         111.3540  -84.7827    0.0000 O.3     1  UNL11      -0.3840
    873 H         110.5861  -85.0841    0.0000 H       1  UNL11       0.2101
    874 C         -51.3502 -129.9366    0.0000 C.3     1  UNL11       0.1369
    875 H         -51.6227 -130.7153    0.0000 H       1  UNL11       0.0672
    876 O         -50.8358 -130.5816    0.0000 O.3     1  UNL11      -0.3840
    877 H         -50.3201 -131.2256    0.0000 H       1  UNL11       0.2101
    878 C         -52.1545 -130.1202    0.0000 C.3     1  UNL11       0.1142
    879 H         -52.9332 -130.3927    0.0000 H       1  UNL11       0.0648
    880 O         -52.3381 -130.9245    0.0000 O.3     1  UNL11      -0.3864
    881 H         -52.5201 -131.7292    0.0000 H       1  UNL11       0.2100
    882 C         -52.7995 -129.6058    0.0000 C.3     1  UNL11       0.1119
    883 H         -53.4980 -129.1669    0.0000 H       1  UNL11       0.0647
    884 O         -53.5428 -129.9638    0.0000 O.3     1  UNL11      -0.3865
    885 H         -54.2854 -130.3232    0.0000 H       1  UNL11       0.2100
    886 C         -52.7995 -128.7808    0.0000 C.3     1  UNL11       0.1118
    887 H         -52.0562 -129.1388    0.0000 H       1  UNL11       0.0647
    888 O         -53.5428 -128.4229    0.0000 O.3     1  UNL11      -0.3865
    889 H         -54.2861 -128.0649    0.0000 H       1  UNL11       0.2100
@<TRIPOS>BOND
     1     1     2    1
     2     2     3    1
     3     3     4    1
     4     3     5    1
     5     6     3    1
     6     6     7    1
     7     6     8    1
     8     9     8    1
     9     9    10    1
    10     9    11    1
    11    11    12    1
    12    12    13    1
    13    13    14    1
    14    13    15    1
    15    13    16    1
    16    16    17    1
    17    17    18    1
    18    17    19    1
    19    17    20    1
    20    20    21    1
    21    20    22    1
    22    20    23    1
    23    23    24    1
    24    24    25    1
    25    24    26    1
    26    24    27    1
    27    27    28    1
    28    28    29    1
    29    28    30    1
    30    28    31    1
    31    31    32    1
    32    31    33    1
    33    31    34    1
    34    34    35    1
    35    35    36    1
    36    35    37    1
    37    35    38    1
    38    38    39    1
    39    39    40    1
    40    39    41    1
    41    39    42    1
    42    42    43    1
    43    42    44    1
    44    42    45    1
    45    45    46    1
    46    46    47    1
    47    46    48    1
    48    46    49    1
    49    49    50    1
    50    50    51    1
    51    50    52    1
    52    50    53    1
    53    53    54    1
    54    53    55    1
    55    53    56    1
    56    56    57    1
    57    57    58    1
    58    57    59    1
    59    57    60    1
    60    60    61    1
    61    61    62    1
    62    61    63    1
    63    61    64    1
    64    64    65    1
    65    64    66    1
    66    64    67    1
    67    67    68    1
    68    68    69    1
    69    68    70    1
    70    68    71    1
    71    71    72    1
    72    72    73    1
    73    72    74    1
    74    72    75    1
    75    75    76    1
    76    75    77    1
    77    75    78    1
    78    78    79    1
    79    79    80    1
    80    79    81    1
    81    79    82    1
    82    82    83    1
    83    83    84    1
    84    83    85    1
    85    83    86    1
    86    86    87    1
    87    86    88    1
    88    86    89    1
    89    89    90    1
    90    90    91    1
    91    90    92    1
    92    90    93    1
    93    93    94    1
    94    94    95    1
    95    94    96    1
    96    94    97    1
    97    97    98    1
    98    97    99    1
    99    97   100    1
   100   100   101    1
   101   101   102    1
   102   101   103    1
   103   101   104    1
   104   104   105    1
   105   105   106    1
   106   105   107    1
   107   105   108    1
   108   108   109    1
   109   108   110    1
   110   108   111    1
   111   111   112    1
   112   112   113    1
   113   112   114    1
   114   112   115    1
   115   115   116    1
   116   116   117    1
   117   116   118    1
   118   116   119    1
   119   119   120    1
   120   119   121    1
   121   119   122    1
   122   122   123    1
   123   123   124    1
   124   123   125    1
   125   123   126    1
   126   126   127    1
   127   127   128    1
   128   127   129    1
   129   127   130    1
   130   130   131    1
   131   130   132    1
   132   130   133    1
   133   133   134    1
   134   134   135    1
   135   134   136    1
   136   134   137    1
   137   137   138    1
   138   138   139    1
   139   138   140    1
   140   138   141    1
   141   141   142    1
   142   141   143    1
   143   141   144    1
   144   144   145    1
   145   145   146    1
   146   145   147    1
   147   145   148    1
   148   148   149    1
   149   149   150    1
   150   149   151    1
   151   149   152    1
   152   152   153    1
   153   152   154    1
   154   152   155    1
   155   155   156    1
   156   156   157    1
   157   156   158    1
   158   156   159    1
   159   159   160    1
   160   160   161    1
   161   160   162    1
   162   160   163    1
   163   163   164    1
   164   163   165    1
   165   163   166    1
   166   166   167    1
   167   167   168    1
   168   167   169    1
   169   167   170    1
   170   170   171    1
   171   171   172    1
   172   171   173    1
   173   171   174    1
   174   174   175    1
   175   174   176    1
   176   174   177    1
   177   177   178    1
   178   178   179    1
   179   178   180    1
   180   178   181    1
   181   181   182    1
   182   182   183    1
   183   182   184    1
   184   182   185    1
   185   185   186    1
   186   185   187    1
   187   185   188    1
   188   188   189    1
   189   189   190    1
   190   189   191    1
   191   189   192    1
   192   192   193    1
   193   193   194    1
   194   193   195    1
   195   193   196    1
   196   196   197    1
   197   196   198    1
   198   196   199    1
   199   199   200    1
   200   200   201    1
   201   200   202    1
   202   200   203    1
   203   203   204    1
   204   204   205    1
   205   204   206    1
   206   204   207    1
   207   207   208    1
   208   207   209    1
   209   207   210    1
   210   210   211    1
   211   211   212    1
   212   211   213    1
   213   211   214    1
   214   214   215    1
   215   215   216    1
   216   215   217    1
   217   215   218    1
   218   218   219    1
   219   218   220    1
   220   218   221    1
   221   221   222    1
   222   222   223    1
   223   222   224    1
   224   222   225    1
   225   225   226    1
   226   226   227    1
   227   226   228    1
   228   226   229    1
   229   229   230    1
   230   229   231    1
   231   229   232    1
   232   232   233    1
   233   233   234    1
   234   233   235    1
   235   233   236    1
   236   236   237    1
   237   237   238    1
   238   237   239    1
   239   237   240    1
   240   240   241    1
   241   240   242    1
   242   240   243    1
   243   243   244    1
   244   244   245    1
   245   244   246    1
   246   244   247    1
   247   247   248    1
   248   248   249    1
   249   248   250    1
   250   248   251    1
   251   251   252    1
   252   251   253    1
   253   251   254    1
   254   254   255    1
   255   255   256    1
   256   255   257    1
   257   255   258    1
   258   258   259    1
   259   259   260    1
   260   259   261    1
   261   259   262    1
   262   262   263    1
   263   262   264    1
   264   262   265    1
   265   265   266    1
   266   266   267    1
   267   266   268    1
   268   266   269    1
   269   269   270    1
   270   270   271    1
   271   270   272    1
   272   270   273    1
   273   273   274    1
   274   273   275    1
   275   273   276    1
   276   276   277    1
   277   277   278    1
   278   277   279    1
   279   277   280    1
   280   280   281    1
   281   281   282    1
   282   281   283    1
   283   280   284    1
   284   284   285    1
   285   284   286    1
   286   284   287    1
   287   287   288    1
   288   288   289    1
   289   288   290    1
   290   288   291    1
   291   291   292    1
   292   291   293    1
   293   291   294    1
   294   294   295    1
   295   295   296    1
   296   295   297    1
   297   295   298    1
   298   298   299    1
   299   299   300    1
   300   299   301    1
   301   299   302    1
   302   302   303    1
   303   302   304    1
   304   302   305    1
   305   305   306    1
   306   306   307    1
   307   306   308    1
   308   306   309    1
   309   309   310    1
   310   310   311    1
   311   310   312    1
   312   310   313    1
   313   313   314    1
   314   313   315    1
   315   313   316    1
   316   316   317    1
   317   317   318    1
   318   317   319    1
   319   317   320    1
   320   320   321    1
   321   321   322    1
   322   321   323    1
   323   321   324    1
   324   324   325    1
   325   324   326    1
   326   324   327    1
   327   327   328    1
   328   328   329    1
   329   328   330    1
   330   328   331    1
   331   331   332    1
   332   332   333    1
   333   332   334    1
   334   332   335    1
   335   335   336    1
   336   335   337    1
   337   335   338    1
   338   338   339    1
   339   339   340    1
   340   339   341    1
   341   339   342    1
   342   342   343    1
   343   343   344    1
   344   343   345    1
   345   343   346    1
   346   346   347    1
   347   346   348    1
   348   346   349    1
   349   349   350    1
   350   350   351    1
   351   350   352    1
   352   350   353    1
   353   353   354    1
   354   354   355    1
   355   354   356    1
   356   354   357    1
   357   357   358    1
   358   357   359    1
   359   357   360    1
   360   360   361    1
   361   361   362    1
   362   361   363    1
   363   361   364    1
   364   364   365    1
   365   365   366    1
   366   365   367    1
   367   365   368    1
   368   368   369    1
   369   368   370    1
   370   368   371    1
   371   371   372    1
   372   372   373    1
   373   372   374    1
   374   372   375    1
   375   375   376    1
   376   376   377    1
   377   376   378    1
   378   376   379    1
   379   379   380    1
   380   379   381    1
   381   379   382    1
   382   382   383    1
   383   383   384    1
   384   383   385    1
   385   383   386    1
   386   386   387    1
   387   387   388    1
   388   387   389    1
   389   387   390    1
   390   390   391    1
   391   390   392    1
   392   390   393    1
   393   393   394    1
   394   394   395    1
   395   394   396    1
   396   394   397    1
   397   397   398    1
   398   398   399    1
   399   398   400    1
   400   398   401    1
   401   401   402    1
   402   401   403    1
   403   401   404    1
   404   404   405    1
   405   405   406    1
   406   405   407    1
   407   405   408    1
   408   408   409    1
   409   409   410    1
   410   409   411    1
   411   409   412    1
   412   412   413    1
   413   412   414    1
   414   412   415    1
   415   415   416    1
   416   416   417    1
   417   416   418    1
   418   416   419    1
   419   419   420    1
   420   420   421    1
   421   420   422    1
   422   420   423    1
   423   423   424    1
   424   423   425    1
   425   423   426    1
   426   426   427    1
   427   427   428    1
   428   427   429    1
   429   427   430    1
   430   430   431    1
   431   431   432    1
   432   431   433    1
   433   431   434    1
   434   434   435    1
   435   434   436    1
   436   434   437    1
   437   437   438    1
   438   438   439    1
   439   438   440    1
   440   438   441    1
   441   441   442    1
   442   442   443    1
   443   442   444    1
   444   442   445    1
   445   445   446    1
   446   445   447    1
   447   445   448    1
   448   448   449    1
   449   449   450    1
   450   449   451    1
   451   449   452    1
   452   452   453    1
   453   453   454    1
   454   453   455    1
   455   453   456    1
   456   456   457    1
   457   456   458    1
   458   456   459    1
   459   459   460    1
   460   460   461    1
   461   460   462    1
   462   460   463    1
   463   463   464    1
   464   464   465    1
   465   464   466    1
   466   464   467    1
   467   467   468    1
   468   467   469    1
   469   467   470    1
   470   470   471    1
   471   471   472    1
   472   471   473    1
   473   471   474    1
   474   474   475    1
   475   475   476    1
   476   475   477    1
   477   475   478    1
   478   478   479    1
   479   478   480    1
   480   478   481    1
   481   481   482    1
   482   482   483    1
   483   482   484    1
   484   482   485    1
   485   485   486    1
   486   486   487    1
   487   486   488    1
   488   486   489    1
   489   489   490    1
   490   489   491    1
   491   489   492    1
   492   492   493    1
   493   493   494    1
   494   493   495    1
   495   493   496    1
   496   496   497    1
   497   497   498    1
   498   497   499    1
   499   497   500    1
   500   500   501    1
   501   500   502    1
   502   500   503    1
   503   503   504    1
   504   504   505    1
   505   504   506    1
   506   504   507    1
   507   507   508    1
   508   508   509    1
   509   508   510    1
   510   508   511    1
   511   511   512    1
   512   511   513    1
   513   511   514    1
   514   514   515    1
   515   515   516    1
   516   515   517    1
   517   515   518    1
   518   518   519    1
   519   519   520    1
   520   519   521    1
   521   519   522    1
   522   522   523    1
   523   522   524    1
   524   522   525    1
   525   525   526    1
   526   526   527    1
   527   526   528    1
   528   526   529    1
   529   529   530    1
   530   530   531    1
   531   530   532    1
   532   530   533    1
   533   533   534    1
   534   533   535    1
   535   533   536    1
   536   536   537    1
   537   537   538    1
   538   537   539    1
   539   537   540    1
   540   540   541    1
   541   541   542    1
   542   541   543    1
   543   541   544    1
   544   544   545    1
   545   544   546    1
   546   544   547    1
   547   547   548    1
   548   548   549    1
   549   548   550    1
   550   548   551    1
   551   551   552    1
   552   553   552    1
   553   553   554    1
   554   553   555    1
   555   556   555    1
   556   556   557    1
   557   556   558    1
   558   558   559    1
   559   558   560    1
   560   558   561    1
   561   561   562    1
   562   563   556    1
   563   563   564    1
   564   563   565    1
   565   565   566    1
   566   563   567    1
   567   567   568    1
   568   567   569    1
   569   569   570    1
   570   567   571    1
   571   571   572    1
   572   571   573    1
   573   573   574    1
   574   571   575    1
   575   575   553    1
   576   575   576    1
   577   575   577    1
   578   577   578    1
   579   280   579    1
   580   579   580    1
   581   579   581    1
   582   579   582    1
   583   582   583    1
   584   583   584    1
   585   583   585    1
   586   583   586    1
   587   586   587    1
   588   586   588    1
   589   586   589    1
   590   589   590    1
   591   590   591    1
   592   590   592    1
   593   590   593    1
   594   593   594    1
   595   594   595    1
   596   594   596    1
   597   594   597    1
   598   597   598    1
   599   597   599    1
   600   597   600    1
   601   600   601    1
   602   601   602    1
   603   601   603    1
   604   601   604    1
   605   604   605    1
   606   605   606    1
   607   605   607    1
   608   605   608    1
   609   608   609    1
   610   608   610    1
   611   608   611    1
   612   611   612    1
   613   612   613    1
   614   612   614    1
   615   612   615    1
   616   615   616    1
   617   616   617    1
   618   616   618    1
   619   616   619    1
   620   619   620    1
   621   619   621    1
   622   619   622    1
   623   622   623    1
   624   623   624    1
   625   623   625    1
   626   623   626    1
   627   626   627    1
   628   627   628    1
   629   627   629    1
   630   627   630    1
   631   630   631    1
   632   630   632    1
   633   630   633    1
   634   633   634    1
   635   634   635    1
   636   634   636    1
   637   634   637    1
   638   637   638    1
   639   638   639    1
   640   638   640    1
   641   638   641    1
   642   641   642    1
   643   641   643    1
   644   641   644    1
   645   644   645    1
   646   645   646    1
   647   645   647    1
   648   645   648    1
   649   648   649    1
   650   649   650    1
   651   649   651    1
   652   649   652    1
   653   652   653    1
   654   652   654    1
   655   652   655    1
   656   655   656    1
   657   656   657    1
   658   656   658    1
   659   656   659    1
   660   659   660    1
   661   660   661    1
   662   660   662    1
   663   660   663    1
   664   663   664    1
   665   663   665    1
   666   663   666    1
   667   666   667    1
   668   667   668    1
   669   667   669    1
   670   667   670    1
   671   670   671    1
   672   671   672    1
   673   671   673    1
   674   671   674    1
   675   674   675    1
   676   674   676    1
   677   674   677    1
   678   677   678    1
   679   678   679    1
   680   678   680    1
   681   678   681    1
   682   681   682    1
   683   682   683    1
   684   682   684    1
   685   682   685    1
   686   685   686    1
   687   685   687    1
   688   685   688    1
   689   688   689    1
   690   689   690    1
   691   689   691    1
   692   689   692    1
   693   692   693    1
   694   693   694    1
   695   693   695    1
   696   693   696    1
   697   696   697    1
   698   696   698    1
   699   696   699    1
   700   699   700    1
   701   700   701    1
   702   700   702    1
   703   700   703    1
   704   703   704    1
   705   704   705    1
   706   704   706    1
   707   704   707    1
   708   707   708    1
   709   707   709    1
   710   707   710    1
   711   710   711    1
   712   711   712    1
   713   711   713    1
   714   711   714    1
   715   714   715    1
   716   715   716    1
   717   715   717    1
   718   715   718    1
   719   718   719    1
   720   718   720    1
   721   718   721    1
   722   721   722    1
   723   722   723    1
   724   722   724    1
   725   722   725    1
   726   725   726    1
   727   726   727    1
   728   726   728    1
   729   726   729    1
   730   729   730    1
   731   729   731    1
   732   729   732    1
   733   732   733    1
   734   733   734    1
   735   733   735    1
   736   733   736    1
   737   736   737    1
   738   737   738    1
   739   737   739    1
   740   737   740    1
   741   740   741    1
   742   740   742    1
   743   740   743    1
   744   743   744    1
   745   744   745    1
   746   744   746    1
   747   744   747    1
   748   747   748    1
   749   748   749    1
   750   748   750    1
   751   748   751    1
   752   751   752    1
   753   751   753    1
   754   751   754    1
   755   754   755    1
   756   755   756    1
   757   755   757    1
   758   755   758    1
   759   758   759    1
   760   759   760    1
   761   759   761    1
   762   759   762    1
   763   762   763    1
   764   762   764    1
   765   762   765    1
   766   765   766    1
   767   766   767    1
   768   766   768    1
   769   766   769    1
   770   769   770    1
   771   770   771    1
   772   770   772    1
   773   770   773    1
   774   773   774    1
   775   773   775    1
   776   773   776    1
   777   776   777    1
   778   777   778    1
   779   777   779    1
   780   777   780    1
   781   780   781    1
   782   781   782    1
   783   781   783    1
   784   781   784    1
   785   784   785    1
   786   784   786    1
   787   784   787    1
   788   787   788    1
   789   788   789    1
   790   788   790    1
   791   788   791    1
   792   791   792    1
   793   792   793    1
   794   792   794    1
   795   792   795    1
   796   795   796    1
   797   795   797    1
   798   795   798    1
   799   798   799    1
   800   799   800    1
   801   799   801    1
   802   799   802    1
   803   802   803    1
   804   803   804    1
   805   803   805    1
   806   803   806    1
   807   806   807    1
   808   806   808    1
   809   806   809    1
   810   809   810    1
   811   810   811    1
   812   810   812    1
   813   810   813    1
   814   813   814    1
   815   814   815    1
   816   814   816    1
   817   814   817    1
   818   817   818    1
   819   817   819    1
   820   817   820    1
   821   820   821    1
   822   821   822    1
   823   821   823    1
   824   821   824    1
   825   824   825    1
   826   825   826    1
   827   825   827    1
   828   825   828    1
   829   828   829    1
   830   828   830    1
   831   828   831    1
   832   831   832    1
   833   832   833    1
   834   832   834    1
   835   832   835    1
   836   835   836    1
   837   836   837    1
   838   836   838    1
   839   836   839    1
   840   839   840    1
   841   839   841    1
   842   839   842    1
   843   842   843    1
   844   843   844    1
   845   843   845    1
   846   843   846    1
   847   846   847    1
   848   848   847    1
   849   848   849    1
   850   848   850    1
   851   851   850    1
   852   851   852    1
   853   851   853    1
   854   853   854    1
   855   853   855    1
   856   853   856    1
   857   856   857    1
   858   858   851    1
   859   858   859    1
   860   858   860    1
   861   860   861    1
   862   858   862    1
   863   862   863    1
   864   862   864    1
   865   864   865    1
   866   862   866    1
   867   866   867    1
   868   866   868    1
   869   868   869    1
   870   866   870    1
   871   870   848    1
   872   870   871    1
   873   870   872    1
   874   872   873    1
   875   874     9    1
   876   874   875    1
   877   874   876    1
   878   876   877    1
   879   874   878    1
   880   878   879    1
   881   878   880    1
   882   880   881    1
   883   878   882    1
   884   882   883    1
   885   882   884    1
   886   884   885    1
   887   882   886    1
   888   886     6    1
   889   886   887    1
   890   886   888    1
   891   888   889    1
