
     RDKit          2D

309315  0  0  0  0  0  0  0  0999 V2000
    2.6491    0.9642    0.0000 O   0  0  0  0  0  0  0  0  0  0  0  0
    1.5000    0.0000    0.0000 C   0  0  0  0  0  0  0  0  0  0  0  0
    0.7500   -1.2990    0.0000 O   0  0  0  0  0  0  0  0  0  0  0  0
   -0.7500   -1.2990    0.0000 C   0  0  0  0  0  0  0  0  0  0  0  0
   -0.4895   -2.7762    0.0000 C   0  0  0  0  0  0  0  0  0  0  0  0
   -0.2291   -4.2535    0.0000 C   0  0  0  0  0  0  0  0  0  0  0  0
    0.0314   -5.7307    0.0000 O   0  0  0  0  0  0  0  0  0  0  0  0
   -1.1176   -6.6949    0.0000 C   0  0  0  0  0  0  0  0  0  0  0  0
   -2.2667   -7.6590    0.0000 C   0  0  0  0  0  0  0  0  0  0  0  0
   -3.4158   -8.6232    0.0000 O   0  0  0  0  0  0  0  0  0  0  0  0
   -3.1553  -10.1004    0.0000 C   0  0  0  0  0  0  0  0  0  0  0  0
   -2.8948  -11.5776    0.0000 O   0  0  0  0  0  0  0  0  0  0  0  0
   -1.4853  -12.0907    0.0000 C   0  0  0  0  0  0  0  0  0  0  0  0
   -0.0758  -12.6037    0.0000 C   0  0  0  0  0  0  0  0  0  0  0  0
    1.3338  -13.1167    0.0000 O   0  0  0  0  0  0  0  0  0  0  0  0
    1.5943  -14.5939    0.0000 C   0  0  0  0  0  0  0  0  0  0  0  0
    1.8547  -16.0712    0.0000 O   0  0  0  0  0  0  0  0  0  0  0  0
    0.7057  -17.0353    0.0000 C   0  0  0  0  0  0  0  0  0  0  0  0
   -0.4434  -17.9995    0.0000 C   0  0  0  0  0  0  0  0  0  0  0  0
   -1.5925  -18.9637    0.0000 O   0  0  0  0  0  0  0  0  0  0  0  0
   -1.3320  -20.4409    0.0000 C   0  0  0  0  0  0  0  0  0  0  0  0
   -1.0715  -21.9181    0.0000 O   0  0  0  0  0  0  0  0  0  0  0  0
    0.3380  -22.4312    0.0000 C   0  0  0  0  0  0  0  0  0  0  0  0
    1.7475  -22.9442    0.0000 C   0  0  0  0  0  0  0  0  0  0  0  0
    3.1571  -23.4572    0.0000 O   0  0  0  0  0  0  0  0  0  0  0  0
    3.4176  -24.9344    0.0000 C   0  0  0  0  0  0  0  0  0  0  0  0
    3.6780  -26.4116    0.0000 O   0  0  0  0  0  0  0  0  0  0  0  0
    2.5290  -27.3758    0.0000 C   0  0  0  0  0  0  0  0  0  0  0  0
    1.3799  -28.3400    0.0000 C   0  0  0  0  0  0  0  0  0  0  0  0
    0.2308  -29.3042    0.0000 O   0  0  0  0  0  0  0  0  0  0  0  0
    0.4913  -30.7814    0.0000 C   0  0  0  0  0  0  0  0  0  0  0  0
    0.7518  -32.2586    0.0000 O   0  0  0  0  0  0  0  0  0  0  0  0
    2.1613  -32.7716    0.0000 C   0  0  0  0  0  0  0  0  0  0  0  0
    3.5709  -33.2847    0.0000 C   0  0  0  0  0  0  0  0  0  0  0  0
    4.9804  -33.7977    0.0000 O   0  0  0  0  0  0  0  0  0  0  0  0
    5.2409  -35.2749    0.0000 C   0  0  0  0  0  0  0  0  0  0  0  0
    5.5013  -36.7521    0.0000 C   0  0  0  0  0  0  0  0  0  0  0  0
    6.8495  -37.4097    0.0000 C   0  0  0  0  0  0  0  0  0  0  0  0
    6.6408  -38.8951    0.0000 N   0  0  0  0  0  0  0  0  0  0  0  0
    7.7198  -39.9371    0.0000 C   0  0  0  0  0  0  0  0  0  0  0  0
    8.7988  -40.9791    0.0000 C   0  0  0  0  0  0  0  0  0  0  0  0
    8.4359  -42.4345    0.0000 C   0  0  0  0  0  0  0  0  0  0  0  0
    9.5149  -43.4765    0.0000 C   0  0  0  0  0  0  0  0  0  0  0  0
    9.1520  -44.9319    0.0000 C   0  0  0  0  0  0  0  0  0  0  0  0
    8.7891  -46.3874    0.0000 N   0  0  0  0  0  0  0  0  0  0  0  0
    9.7533  -47.5364    0.0000 C   0  0  0  0  0  0  0  0  0  0  0  0
    8.9584  -48.8085    0.0000 C   0  0  0  0  0  0  0  0  0  0  0  0
    9.5204  -50.1993    0.0000 C   0  0  0  0  0  0  0  0  0  0  0  0
   10.0823  -51.5901    0.0000 O   0  0  0  0  0  0  0  0  0  0  0  0
   11.5677  -51.7988    0.0000 C   0  0  0  0  0  0  0  0  0  0  0  0
   13.0531  -52.0076    0.0000 C   0  0  0  0  0  0  0  0  0  0  0  0
   14.5385  -52.2163    0.0000 O   0  0  0  0  0  0  0  0  0  0  0  0
   15.1004  -53.6071    0.0000 C   0  0  0  0  0  0  0  0  0  0  0  0
   15.6623  -54.9979    0.0000 O   0  0  0  0  0  0  0  0  0  0  0  0
   14.7388  -56.1799    0.0000 C   0  0  0  0  0  0  0  0  0  0  0  0
   13.8153  -57.3619    0.0000 C   0  0  0  0  0  0  0  0  0  0  0  0
   12.8918  -58.5439    0.0000 O   0  0  0  0  0  0  0  0  0  0  0  0
   13.4537  -59.9347    0.0000 C   0  0  0  0  0  0  0  0  0  0  0  0
   14.0156  -61.3255    0.0000 O   0  0  0  0  0  0  0  0  0  0  0  0
   15.5010  -61.5342    0.0000 C   0  0  0  0  0  0  0  0  0  0  0  0
   16.9864  -61.7430    0.0000 C   0  0  0  0  0  0  0  0  0  0  0  0
   18.4718  -61.9518    0.0000 O   0  0  0  0  0  0  0  0  0  0  0  0
   19.0338  -63.3425    0.0000 C   0  0  0  0  0  0  0  0  0  0  0  0
   19.5957  -64.7333    0.0000 O   0  0  0  0  0  0  0  0  0  0  0  0
   18.6722  -65.9153    0.0000 C   0  0  0  0  0  0  0  0  0  0  0  0
   17.7487  -67.0974    0.0000 C   0  0  0  0  0  0  0  0  0  0  0  0
   16.8252  -68.2794    0.0000 O   0  0  0  0  0  0  0  0  0  0  0  0
   17.3871  -69.6701    0.0000 C   0  0  0  0  0  0  0  0  0  0  0  0
   17.9490  -71.0609    0.0000 O   0  0  0  0  0  0  0  0  0  0  0  0
   19.4344  -71.2697    0.0000 C   0  0  0  0  0  0  0  0  0  0  0  0
   20.9198  -71.4784    0.0000 C   0  0  0  0  0  0  0  0  0  0  0  0
   22.4052  -71.6872    0.0000 O   0  0  0  0  0  0  0  0  0  0  0  0
   22.9671  -73.0780    0.0000 C   0  0  0  0  0  0  0  0  0  0  0  0
   23.5290  -74.4688    0.0000 O   0  0  0  0  0  0  0  0  0  0  0  0
   22.6055  -75.6508    0.0000 C   0  0  0  0  0  0  0  0  0  0  0  0
   21.6820  -76.8328    0.0000 C   0  0  0  0  0  0  0  0  0  0  0  0
   20.7586  -78.0148    0.0000 O   0  0  0  0  0  0  0  0  0  0  0  0
   21.3205  -79.4056    0.0000 C   0  0  0  0  0  0  0  0  0  0  0  0
   21.8824  -80.7964    0.0000 C   0  0  0  0  0  0  0  0  0  0  0  0
   22.4443  -82.1871    0.0000 C   0  0  0  0  0  0  0  0  0  0  0  0
   20.9771  -82.4990    0.0000 O   0  0  0  0  0  0  0  0  0  0  0  0
   20.5135  -83.9256    0.0000 C   0  0  0  0  0  0  0  0  0  0  0  0
   19.5900  -85.1076    0.0000 O   0  0  0  0  0  0  0  0  0  0  0  0
   21.5172  -85.0403    0.0000 C   0  0  0  0  0  0  0  0  0  0  0  0
   22.0791  -86.4311    0.0000 O   0  0  0  0  0  0  0  0  0  0  0  0
   22.9845  -84.7284    0.0000 C   0  0  0  0  0  0  0  0  0  0  0  0
   24.4699  -84.9372    0.0000 O   0  0  0  0  0  0  0  0  0  0  0  0
   23.4480  -83.3018    0.0000 C   0  0  0  0  0  0  0  0  0  0  0  0
   24.3715  -82.1198    0.0000 O   0  0  0  0  0  0  0  0  0  0  0  0
    7.5030  -48.4456    0.0000 N   0  0  0  0  0  0  0  0  0  0  0  0
    7.3984  -46.9493    0.0000 N   0  0  0  0  0  0  0  0  0  0  0  0
   10.9568  -43.0630    0.0000 C   0  0  0  0  0  0  0  0  0  0  0  0
   11.3197  -41.6076    0.0000 C   0  0  0  0  0  0  0  0  0  0  0  0
   12.7616  -41.1941    0.0000 C   0  0  0  0  0  0  0  0  0  0  0  0
   14.2035  -40.7807    0.0000 N   0  0  0  0  0  0  0  0  0  0  0  0
   14.7165  -39.3711    0.0000 C   0  0  0  0  0  0  0  0  0  0  0  0
   16.2156  -39.4235    0.0000 C   0  0  0  0  0  0  0  0  0  0  0  0
   17.1391  -38.2415    0.0000 C   0  0  0  0  0  0  0  0  0  0  0  0
   18.0626  -37.0594    0.0000 O   0  0  0  0  0  0  0  0  0  0  0  0
   17.5007  -35.6687    0.0000 C   0  0  0  0  0  0  0  0  0  0  0  0
   16.9388  -34.2779    0.0000 C   0  0  0  0  0  0  0  0  0  0  0  0
   16.3768  -32.8871    0.0000 O   0  0  0  0  0  0  0  0  0  0  0  0
   17.3003  -31.7051    0.0000 C   0  0  0  0  0  0  0  0  0  0  0  0
   18.2238  -30.5231    0.0000 O   0  0  0  0  0  0  0  0  0  0  0  0
   19.7092  -30.7318    0.0000 C   0  0  0  0  0  0  0  0  0  0  0  0
   21.1946  -30.9406    0.0000 C   0  0  0  0  0  0  0  0  0  0  0  0
   22.6800  -31.1494    0.0000 O   0  0  0  0  0  0  0  0  0  0  0  0
   23.6035  -29.9674    0.0000 C   0  0  0  0  0  0  0  0  0  0  0  0
   24.5270  -28.7853    0.0000 O   0  0  0  0  0  0  0  0  0  0  0  0
   23.9651  -27.3946    0.0000 C   0  0  0  0  0  0  0  0  0  0  0  0
   23.4032  -26.0038    0.0000 C   0  0  0  0  0  0  0  0  0  0  0  0
   22.8413  -24.6130    0.0000 O   0  0  0  0  0  0  0  0  0  0  0  0
   23.7648  -23.4310    0.0000 C   0  0  0  0  0  0  0  0  0  0  0  0
   24.6883  -22.2490    0.0000 O   0  0  0  0  0  0  0  0  0  0  0  0
   26.1737  -22.4577    0.0000 C   0  0  0  0  0  0  0  0  0  0  0  0
   27.6591  -22.6665    0.0000 C   0  0  0  0  0  0  0  0  0  0  0  0
   29.1445  -22.8753    0.0000 O   0  0  0  0  0  0  0  0  0  0  0  0
   30.0680  -21.6932    0.0000 C   0  0  0  0  0  0  0  0  0  0  0  0
   30.9915  -20.5112    0.0000 O   0  0  0  0  0  0  0  0  0  0  0  0
   30.4296  -19.1204    0.0000 C   0  0  0  0  0  0  0  0  0  0  0  0
   29.8676  -17.7297    0.0000 C   0  0  0  0  0  0  0  0  0  0  0  0
   29.3057  -16.3389    0.0000 O   0  0  0  0  0  0  0  0  0  0  0  0
   30.2292  -15.1569    0.0000 C   0  0  0  0  0  0  0  0  0  0  0  0
   31.1527  -13.9749    0.0000 O   0  0  0  0  0  0  0  0  0  0  0  0
   32.6381  -14.1836    0.0000 C   0  0  0  0  0  0  0  0  0  0  0  0
   34.1235  -14.3924    0.0000 C   0  0  0  0  0  0  0  0  0  0  0  0
   35.6089  -14.6011    0.0000 O   0  0  0  0  0  0  0  0  0  0  0  0
   36.5324  -13.4191    0.0000 C   0  0  0  0  0  0  0  0  0  0  0  0
   37.4559  -12.2371    0.0000 C   0  0  0  0  0  0  0  0  0  0  0  0
   38.3794  -11.0551    0.0000 C   0  0  0  0  0  0  0  0  0  0  0  0
   39.3831  -12.1698    0.0000 O   0  0  0  0  0  0  0  0  0  0  0  0
   40.8503  -11.8579    0.0000 C   0  0  0  0  0  0  0  0  0  0  0  0
   42.3357  -12.0667    0.0000 O   0  0  0  0  0  0  0  0  0  0  0  0
   41.3138  -10.4314    0.0000 C   0  0  0  0  0  0  0  0  0  0  0  0
   42.2373   -9.2493    0.0000 O   0  0  0  0  0  0  0  0  0  0  0  0
   40.3101   -9.3166    0.0000 C   0  0  0  0  0  0  0  0  0  0  0  0
   39.7482   -7.9259    0.0000 O   0  0  0  0  0  0  0  0  0  0  0  0
   38.8429   -9.6285    0.0000 C   0  0  0  0  0  0  0  0  0  0  0  0
   37.3575   -9.4197    0.0000 O   0  0  0  0  0  0  0  0  0  0  0  0
   16.6290  -40.8654    0.0000 N   0  0  0  0  0  0  0  0  0  0  0  0
   15.3855  -41.7042    0.0000 N   0  0  0  0  0  0  0  0  0  0  0  0
   10.2407  -40.5656    0.0000 C   0  0  0  0  0  0  0  0  0  0  0  0
    5.1636  -39.1555    0.0000 N   0  0  0  0  0  0  0  0  0  0  0  0
    4.4593  -37.8311    0.0000 N   0  0  0  0  0  0  0  0  0  0  0  0
   -1.5000    0.0000    0.0000 C   0  0  0  0  0  0  0  0  0  0  0  0
   -2.6491   -0.9642    0.0000 O   0  0  0  0  0  0  0  0  0  0  0  0
   -0.7500    1.2990    0.0000 C   0  0  0  0  0  0  0  0  0  0  0  0
   -2.1595    1.8121    0.0000 O   0  0  0  0  0  0  0  0  0  0  0  0
    0.7500    1.2990    0.0000 C   0  0  0  0  0  0  0  0  0  0  0  0
    0.4895    2.7762    0.0000 O   0  0  0  0  0  0  0  0  0  0  0  0
    4.0586    0.4512    0.0000 H   0  0  0  0  0  0  0  0  0  0  0  0
    2.6491   -0.9642    0.0000 H   0  0  0  0  0  0  0  0  0  0  0  0
   -2.1595   -1.8121    0.0000 H   0  0  0  0  0  0  0  0  0  0  0  0
   -1.9667   -3.0367    0.0000 H   0  0  0  0  0  0  0  0  0  0  0  0
    0.9877   -2.5158    0.0000 H   0  0  0  0  0  0  0  0  0  0  0  0
    1.2482   -3.9930    0.0000 H   0  0  0  0  0  0  0  0  0  0  0  0
   -1.7063   -4.5139    0.0000 H   0  0  0  0  0  0  0  0  0  0  0  0
   -2.0818   -5.5458    0.0000 H   0  0  0  0  0  0  0  0  0  0  0  0
   -0.1535   -7.8439    0.0000 H   0  0  0  0  0  0  0  0  0  0  0  0
   -3.2309   -6.5100    0.0000 H   0  0  0  0  0  0  0  0  0  0  0  0
   -1.3025   -8.8081    0.0000 H   0  0  0  0  0  0  0  0  0  0  0  0
   -4.6325  -10.3609    0.0000 H   0  0  0  0  0  0  0  0  0  0  0  0
   -1.6781   -9.8400    0.0000 H   0  0  0  0  0  0  0  0  0  0  0  0
   -0.9723  -10.6811    0.0000 H   0  0  0  0  0  0  0  0  0  0  0  0
   -1.9983  -13.5002    0.0000 H   0  0  0  0  0  0  0  0  0  0  0  0
    0.4373  -11.1942    0.0000 H   0  0  0  0  0  0  0  0  0  0  0  0
   -0.5888  -14.0132    0.0000 H   0  0  0  0  0  0  0  0  0  0  0  0
    3.0715  -14.3335    0.0000 H   0  0  0  0  0  0  0  0  0  0  0  0
    0.1170  -14.8544    0.0000 H   0  0  0  0  0  0  0  0  0  0  0  0
   -0.2585  -15.8863    0.0000 H   0  0  0  0  0  0  0  0  0  0  0  0
    1.6698  -18.1844    0.0000 H   0  0  0  0  0  0  0  0  0  0  0  0
   -1.4076  -16.8505    0.0000 H   0  0  0  0  0  0  0  0  0  0  0  0
    0.5208  -19.1486    0.0000 H   0  0  0  0  0  0  0  0  0  0  0  0
   -2.8092  -20.7014    0.0000 H   0  0  0  0  0  0  0  0  0  0  0  0
    0.1452  -20.1804    0.0000 H   0  0  0  0  0  0  0  0  0  0  0  0
    0.8510  -21.0216    0.0000 H   0  0  0  0  0  0  0  0  0  0  0  0
   -0.1750  -23.8407    0.0000 H   0  0  0  0  0  0  0  0  0  0  0  0
    2.2606  -21.5346    0.0000 H   0  0  0  0  0  0  0  0  0  0  0  0
    1.2345  -24.3537    0.0000 H   0  0  0  0  0  0  0  0  0  0  0  0
    4.8948  -24.6740    0.0000 H   0  0  0  0  0  0  0  0  0  0  0  0
    1.9403  -25.1949    0.0000 H   0  0  0  0  0  0  0  0  0  0  0  0
    1.5648  -26.2268    0.0000 H   0  0  0  0  0  0  0  0  0  0  0  0
    3.4931  -28.5249    0.0000 H   0  0  0  0  0  0  0  0  0  0  0  0
    0.4157  -27.1909    0.0000 H   0  0  0  0  0  0  0  0  0  0  0  0
    2.3441  -29.4891    0.0000 H   0  0  0  0  0  0  0  0  0  0  0  0
   -0.9859  -31.0419    0.0000 H   0  0  0  0  0  0  0  0  0  0  0  0
    1.9685  -30.5209    0.0000 H   0  0  0  0  0  0  0  0  0  0  0  0
    2.6743  -31.3621    0.0000 H   0  0  0  0  0  0  0  0  0  0  0  0
    1.6483  -34.1812    0.0000 H   0  0  0  0  0  0  0  0  0  0  0  0
    4.0839  -31.8751    0.0000 H   0  0  0  0  0  0  0  0  0  0  0  0
    3.0578  -34.6942    0.0000 H   0  0  0  0  0  0  0  0  0  0  0  0
    3.7637  -35.5354    0.0000 H   0  0  0  0  0  0  0  0  0  0  0  0
    6.7181  -35.0144    0.0000 H   0  0  0  0  0  0  0  0  0  0  0  0
    8.1739  -36.7055    0.0000 H   0  0  0  0  0  0  0  0  0  0  0  0
    8.7618  -38.8581    0.0000 H   0  0  0  0  0  0  0  0  0  0  0  0
    6.6778  -41.0161    0.0000 H   0  0  0  0  0  0  0  0  0  0  0  0
    6.9940  -42.8480    0.0000 H   0  0  0  0  0  0  0  0  0  0  0  0
   10.6075  -45.2948    0.0000 H   0  0  0  0  0  0  0  0  0  0  0  0
    7.6966  -44.5690    0.0000 H   0  0  0  0  0  0  0  0  0  0  0  0
   11.2497  -47.4318    0.0000 H   0  0  0  0  0  0  0  0  0  0  0  0
    8.1296  -50.7612    0.0000 H   0  0  0  0  0  0  0  0  0  0  0  0
   10.9111  -49.6374    0.0000 H   0  0  0  0  0  0  0  0  0  0  0  0
   11.7764  -50.3134    0.0000 H   0  0  0  0  0  0  0  0  0  0  0  0
   11.3589  -53.2842    0.0000 H   0  0  0  0  0  0  0  0  0  0  0  0
   13.2618  -50.5222    0.0000 H   0  0  0  0  0  0  0  0  0  0  0  0
   12.8443  -53.4930    0.0000 H   0  0  0  0  0  0  0  0  0  0  0  0
   16.4912  -53.0452    0.0000 H   0  0  0  0  0  0  0  0  0  0  0  0
   13.7096  -54.1690    0.0000 H   0  0  0  0  0  0  0  0  0  0  0  0
   13.5568  -55.2564    0.0000 H   0  0  0  0  0  0  0  0  0  0  0  0
   15.9208  -57.1034    0.0000 H   0  0  0  0  0  0  0  0  0  0  0  0
   12.6333  -56.4384    0.0000 H   0  0  0  0  0  0  0  0  0  0  0  0
   14.9973  -58.2854    0.0000 H   0  0  0  0  0  0  0  0  0  0  0  0
   12.0630  -60.4966    0.0000 H   0  0  0  0  0  0  0  0  0  0  0  0
   14.8445  -59.3728    0.0000 H   0  0  0  0  0  0  0  0  0  0  0  0
   15.7098  -60.0488    0.0000 H   0  0  0  0  0  0  0  0  0  0  0  0
   15.2923  -63.0197    0.0000 H   0  0  0  0  0  0  0  0  0  0  0  0
   17.1952  -60.2576    0.0000 H   0  0  0  0  0  0  0  0  0  0  0  0
   16.7777  -63.2284    0.0000 H   0  0  0  0  0  0  0  0  0  0  0  0
   20.4245  -62.7806    0.0000 H   0  0  0  0  0  0  0  0  0  0  0  0
   17.6430  -63.9045    0.0000 H   0  0  0  0  0  0  0  0  0  0  0  0
   17.4902  -64.9918    0.0000 H   0  0  0  0  0  0  0  0  0  0  0  0
   19.8542  -66.8388    0.0000 H   0  0  0  0  0  0  0  0  0  0  0  0
   16.5667  -66.1739    0.0000 H   0  0  0  0  0  0  0  0  0  0  0  0
   18.9307  -68.0208    0.0000 H   0  0  0  0  0  0  0  0  0  0  0  0
   15.9963  -70.2321    0.0000 H   0  0  0  0  0  0  0  0  0  0  0  0
   18.7779  -69.1082    0.0000 H   0  0  0  0  0  0  0  0  0  0  0  0
   19.6432  -69.7843    0.0000 H   0  0  0  0  0  0  0  0  0  0  0  0
   19.2256  -72.7551    0.0000 H   0  0  0  0  0  0  0  0  0  0  0  0
   21.1286  -69.9930    0.0000 H   0  0  0  0  0  0  0  0  0  0  0  0
   20.7111  -72.9638    0.0000 H   0  0  0  0  0  0  0  0  0  0  0  0
   24.3579  -72.5161    0.0000 H   0  0  0  0  0  0  0  0  0  0  0  0
   21.5763  -73.6399    0.0000 H   0  0  0  0  0  0  0  0  0  0  0  0
   21.4235  -74.7273    0.0000 H   0  0  0  0  0  0  0  0  0  0  0  0
   23.7876  -76.5743    0.0000 H   0  0  0  0  0  0  0  0  0  0  0  0
   20.5000  -75.9093    0.0000 H   0  0  0  0  0  0  0  0  0  0  0  0
   22.8641  -77.7563    0.0000 H   0  0  0  0  0  0  0  0  0  0  0  0
   22.7112  -78.8437    0.0000 H   0  0  0  0  0  0  0  0  0  0  0  0
   19.9297  -79.9675    0.0000 H   0  0  0  0  0  0  0  0  0  0  0  0
   23.2732  -80.2344    0.0000 H   0  0  0  0  0  0  0  0  0  0  0  0
   20.4916  -81.3583    0.0000 H   0  0  0  0  0  0  0  0  0  0  0  0
   23.7164  -81.3922    0.0000 H   0  0  0  0  0  0  0  0  0  0  0  0
   19.1891  -83.2214    0.0000 H   0  0  0  0  0  0  0  0  0  0  0  0
   18.1046  -84.8988    0.0000 H   0  0  0  0  0  0  0  0  0  0  0  0
   20.2452  -85.8352    0.0000 H   0  0  0  0  0  0  0  0  0  0  0  0
   21.1557  -87.6131    0.0000 H   0  0  0  0  0  0  0  0  0  0  0  0
   23.0368  -86.2275    0.0000 H   0  0  0  0  0  0  0  0  0  0  0  0
   25.0318  -86.3280    0.0000 H   0  0  0  0  0  0  0  0  0  0  0  0
   24.7724  -84.0061    0.0000 H   0  0  0  0  0  0  0  0  0  0  0  0
   25.8569  -82.3286    0.0000 H   0  0  0  0  0  0  0  0  0  0  0  0
   12.0358  -44.1050    0.0000 H   0  0  0  0  0  0  0  0  0  0  0  0
   12.3481  -39.7522    0.0000 H   0  0  0  0  0  0  0  0  0  0  0  0
   13.1750  -42.6360    0.0000 H   0  0  0  0  0  0  0  0  0  0  0  0
   13.8777  -38.1276    0.0000 H   0  0  0  0  0  0  0  0  0  0  0  0
   18.3211  -39.1650    0.0000 H   0  0  0  0  0  0  0  0  0  0  0  0
   15.9571  -37.3180    0.0000 H   0  0  0  0  0  0  0  0  0  0  0  0
   16.1099  -36.2306    0.0000 H   0  0  0  0  0  0  0  0  0  0  0  0
   18.8914  -35.1068    0.0000 H   0  0  0  0  0  0  0  0  0  0  0  0
   15.5480  -34.8398    0.0000 H   0  0  0  0  0  0  0  0  0  0  0  0
   18.3295  -33.7160    0.0000 H   0  0  0  0  0  0  0  0  0  0  0  0
   16.1183  -30.7816    0.0000 H   0  0  0  0  0  0  0  0  0  0  0  0
   18.4824  -32.6286    0.0000 H   0  0  0  0  0  0  0  0  0  0  0  0
   19.5005  -32.2173    0.0000 H   0  0  0  0  0  0  0  0  0  0  0  0
   19.9180  -29.2464    0.0000 H   0  0  0  0  0  0  0  0  0  0  0  0
   20.9859  -32.4260    0.0000 H   0  0  0  0  0  0  0  0  0  0  0  0
   21.4034  -29.4552    0.0000 H   0  0  0  0  0  0  0  0  0  0  0  0
   24.7855  -30.8908    0.0000 H   0  0  0  0  0  0  0  0  0  0  0  0
   22.4215  -29.0439    0.0000 H   0  0  0  0  0  0  0  0  0  0  0  0
   22.5743  -27.9565    0.0000 H   0  0  0  0  0  0  0  0  0  0  0  0
   25.3559  -26.8327    0.0000 H   0  0  0  0  0  0  0  0  0  0  0  0
   22.0124  -26.5657    0.0000 H   0  0  0  0  0  0  0  0  0  0  0  0
   24.7940  -25.4419    0.0000 H   0  0  0  0  0  0  0  0  0  0  0  0
   22.5828  -22.5075    0.0000 H   0  0  0  0  0  0  0  0  0  0  0  0
   24.9468  -24.3545    0.0000 H   0  0  0  0  0  0  0  0  0  0  0  0
   25.9649  -23.9431    0.0000 H   0  0  0  0  0  0  0  0  0  0  0  0
   26.3824  -20.9723    0.0000 H   0  0  0  0  0  0  0  0  0  0  0  0
   27.4503  -24.1519    0.0000 H   0  0  0  0  0  0  0  0  0  0  0  0
   27.8678  -21.1811    0.0000 H   0  0  0  0  0  0  0  0  0  0  0  0
   31.2500  -22.6167    0.0000 H   0  0  0  0  0  0  0  0  0  0  0  0
   28.8860  -20.7697    0.0000 H   0  0  0  0  0  0  0  0  0  0  0  0
   29.0388  -19.6824    0.0000 H   0  0  0  0  0  0  0  0  0  0  0  0
   31.8203  -18.5585    0.0000 H   0  0  0  0  0  0  0  0  0  0  0  0
   28.4769  -18.2916    0.0000 H   0  0  0  0  0  0  0  0  0  0  0  0
   31.2584  -17.1678    0.0000 H   0  0  0  0  0  0  0  0  0  0  0  0
   29.0472  -14.2334    0.0000 H   0  0  0  0  0  0  0  0  0  0  0  0
   31.4112  -16.0804    0.0000 H   0  0  0  0  0  0  0  0  0  0  0  0
   32.4294  -15.6690    0.0000 H   0  0  0  0  0  0  0  0  0  0  0  0
   32.8469  -12.6982    0.0000 H   0  0  0  0  0  0  0  0  0  0  0  0
   33.9148  -15.8778    0.0000 H   0  0  0  0  0  0  0  0  0  0  0  0
   34.3323  -12.9070    0.0000 H   0  0  0  0  0  0  0  0  0  0  0  0
   35.3504  -12.4956    0.0000 H   0  0  0  0  0  0  0  0  0  0  0  0
   37.7144  -14.3426    0.0000 H   0  0  0  0  0  0  0  0  0  0  0  0
   36.2739  -11.3136    0.0000 H   0  0  0  0  0  0  0  0  0  0  0  0
   38.6379  -13.1606    0.0000 H   0  0  0  0  0  0  0  0  0  0  0  0
   37.0550  -10.3509    0.0000 H   0  0  0  0  0  0  0  0  0  0  0  0
   40.9027  -13.3570    0.0000 H   0  0  0  0  0  0  0  0  0  0  0  0
   42.8976  -13.4575    0.0000 H   0  0  0  0  0  0  0  0  0  0  0  0
   42.6383  -11.1356    0.0000 H   0  0  0  0  0  0  0  0  0  0  0  0
   43.7227   -9.4581    0.0000 H   0  0  0  0  0  0  0  0  0  0  0  0
   41.5822   -8.5218    0.0000 H   0  0  0  0  0  0  0  0  0  0  0  0
   40.6717   -6.7438    0.0000 H   0  0  0  0  0  0  0  0  0  0  0  0
   38.7906   -8.1294    0.0000 H   0  0  0  0  0  0  0  0  0  0  0  0
   36.7956   -8.0290    0.0000 H   0  0  0  0  0  0  0  0  0  0  0  0
   10.6036  -39.1102    0.0000 H   0  0  0  0  0  0  0  0  0  0  0  0
   -2.6491    0.9642    0.0000 H   0  0  0  0  0  0  0  0  0  0  0  0
   -4.0586   -0.4512    0.0000 H   0  0  0  0  0  0  0  0  0  0  0  0
   -0.4895    2.7762    0.0000 H   0  0  0  0  0  0  0  0  0  0  0  0
   -2.4200    3.2893    0.0000 H   0  0  0  0  0  0  0  0  0  0  0  0
    2.1595    1.8121    0.0000 H   0  0  0  0  0  0  0  0  0  0  0  0
    1.6386    3.7404    0.0000 H   0  0  0  0  0  0  0  0  0  0  0  0
  1  2  1  0
  2  3  1  0
  3  4  1  0
  4  5  1  0
  5  6  1  0
  6  7  1  0
  7  8  1  0
  8  9  1  0
  9 10  1  0
 10 11  1  0
 11 12  1  0
 12 13  1  0
 13 14  1  0
 14 15  1  0
 15 16  1  0
 16 17  1  0
 17 18  1  0
 18 19  1  0
 19 20  1  0
 20 21  1  0
 21 22  1  0
 22 23  1  0
 23 24  1  0
 24 25  1  0
 25 26  1  0
 26 27  1  0
 27 28  1  0
 28 29  1  0
 29 30  1  0
 30 31  1  0
 31 32  1  0
 32 33  1  0
 33 34  1  0
 34 35  1  0
 35 36  1  0
 36 37  1  0
 37 38  2  0
 38 39  1  0
 39 40  1  0
 40 41  1  0
 41 42  2  0
 42 43  1  0
 43 44  1  0
 44 45  1  0
 45 46  1  0
 46 47  2  0
 47 48  1  0
 48 49  1  0
 49 50  1  0
 50 51  1  0
 51 52  1  0
 52 53  1  0
 53 54  1  0
 54 55  1  0
 55 56  1  0
 56 57  1  0
 57 58  1  0
 58 59  1  0
 59 60  1  0
 60 61  1  0
 61 62  1  0
 62 63  1  0
 63 64  1  0
 64 65  1  0
 65 66  1  0
 66 67  1  0
 67 68  1  0
 68 69  1  0
 69 70  1  0
 70 71  1  0
 71 72  1  0
 72 73  1  0
 73 74  1  0
 74 75  1  0
 75 76  1  0
 76 77  1  0
 77 78  1  0
 78 79  1  0
 79 80  1  0
 80 81  1  0
 81 82  1  0
 82 83  1  0
 82 84  1  0
 84 85  1  0
 84 86  1  0
 86 87  1  0
 86 88  1  0
 88 89  1  0
 47 90  1  0
 90 91  2  0
 43 92  2  0
 92 93  1  0
 93 94  1  0
 94 95  1  0
 95 96  1  0
 96 97  2  0
 97 98  1  0
 98 99  1  0
 99100  1  0
100101  1  0
101102  1  0
102103  1  0
103104  1  0
104105  1  0
105106  1  0
106107  1  0
107108  1  0
108109  1  0
109110  1  0
110111  1  0
111112  1  0
112113  1  0
113114  1  0
114115  1  0
115116  1  0
116117  1  0
117118  1  0
118119  1  0
119120  1  0
120121  1  0
121122  1  0
122123  1  0
123124  1  0
124125  1  0
125126  1  0
126127  1  0
127128  1  0
128129  1  0
129130  1  0
130131  1  0
131132  1  0
132133  1  0
132134  1  0
134135  1  0
134136  1  0
136137  1  0
136138  1  0
138139  1  0
 97140  1  0
140141  2  0
 93142  2  0
 39143  1  0
143144  2  0
  4145  1  0
145146  1  0
145147  1  0
147148  1  0
147149  1  0
149150  1  0
149  2  1  0
144 37  1  0
142 41  1  0
 91 45  1  0
141 95  1  0
 88 80  1  0
138130  1  0
  1151  1  0
  2152  1  0
  4153  1  6
  5154  1  0
  5155  1  0
  6156  1  0
  6157  1  0
  8158  1  0
  8159  1  0
  9160  1  0
  9161  1  0
 11162  1  0
 11163  1  0
 13164  1  0
 13165  1  0
 14166  1  0
 14167  1  0
 16168  1  0
 16169  1  0
 18170  1  0
 18171  1  0
 19172  1  0
 19173  1  0
 21174  1  0
 21175  1  0
 23176  1  0
 23177  1  0
 24178  1  0
 24179  1  0
 26180  1  0
 26181  1  0
 28182  1  0
 28183  1  0
 29184  1  0
 29185  1  0
 31186  1  0
 31187  1  0
 33188  1  0
 33189  1  0
 34190  1  0
 34191  1  0
 36192  1  0
 36193  1  0
 38194  1  0
 40195  1  0
 40196  1  0
 42197  1  0
 44198  1  0
 44199  1  0
 46200  1  0
 48201  1  0
 48202  1  0
 50203  1  0
 50204  1  0
 51205  1  0
 51206  1  0
 53207  1  0
 53208  1  0
 55209  1  0
 55210  1  0
 56211  1  0
 56212  1  0
 58213  1  0
 58214  1  0
 60215  1  0
 60216  1  0
 61217  1  0
 61218  1  0
 63219  1  0
 63220  1  0
 65221  1  0
 65222  1  0
 66223  1  0
 66224  1  0
 68225  1  0
 68226  1  0
 70227  1  0
 70228  1  0
 71229  1  0
 71230  1  0
 73231  1  0
 73232  1  0
 75233  1  0
 75234  1  0
 76235  1  0
 76236  1  0
 78237  1  0
 78238  1  0
 79239  1  0
 79240  1  0
 80241  1  6
 82242  1  0
 83243  1  0
 84244  1  1
 85245  1  0
 86246  1  6
 87247  1  0
 88248  1  1
 89249  1  0
 92250  1  0
 94251  1  0
 94252  1  0
 96253  1  0
 98254  1  0
 98255  1  0
100256  1  0
100257  1  0
101258  1  0
101259  1  0
103260  1  0
103261  1  0
105262  1  0
105263  1  0
106264  1  0
106265  1  0
108266  1  0
108267  1  0
110268  1  0
110269  1  0
111270  1  0
111271  1  0
113272  1  0
113273  1  0
115274  1  0
115275  1  0
116276  1  0
116277  1  0
118278  1  0
118279  1  0
120280  1  0
120281  1  0
121282  1  0
121283  1  0
123284  1  0
123285  1  0
125286  1  0
125287  1  0
126288  1  0
126289  1  0
128290  1  0
128291  1  0
129292  1  0
129293  1  0
130294  1  6
132295  1  0
133296  1  0
134297  1  1
135298  1  0
136299  1  6
137300  1  0
138301  1  1
139302  1  0
142303  1  0
145304  1  1
146305  1  0
147306  1  6
148307  1  0
149308  1  1
150309  1  0
M  END
$$$$
