
     RDKit          3D

 75 81  0  0  0  0  0  0  0  0999 V2000
  584.1085  -21.1183  216.4601 O   0  0  0  0  0  0  0  0  0  0  0  0
  585.2092  -20.6058  215.7117 C   0  0  0  0  0  0  0  0  0  0  0  0
  585.1843  -21.2023  214.4261 O   0  0  0  0  0  0  0  0  0  0  0  0
  586.2948  -20.7938  213.5998 C   0  0  1  0  0  0  0  0  0  0  0  0
  586.1437  -21.5638  212.2779 C   0  0  0  0  0  0  0  0  0  0  0  0
  587.3122  -22.4703  211.9153 C   0  0  0  0  0  0  0  0  0  0  0  0
  587.0364  -23.0726  210.6457 O   0  0  0  0  0  0  0  0  0  0  0  0
  586.9879  -24.4978  210.7465 C   0  0  0  0  0  0  0  0  0  0  0  0
  587.3141  -25.1149  209.3912 C   0  0  0  0  0  0  0  0  0  0  0  0
  587.0939  -26.5243  209.4422 O   0  0  0  0  0  0  0  0  0  0  0  0
  585.7554  -26.8805  209.8241 C   0  0  0  0  0  0  0  0  0  0  0  0
  585.4327  -28.3214  209.6480 C   0  0  0  0  0  0  0  0  0  0  0  0
  586.2148  -29.3295  209.1262 C   0  0  0  0  0  0  0  0  0  0  0  0
  585.3704  -30.3980  209.0682 N   0  0  0  0  0  0  0  0  0  0  0  0
  585.5892  -31.6629  208.3920 C   0  0  0  0  0  0  0  0  0  0  0  0
  585.4276  -31.4816  206.8989 C   0  0  0  0  0  0  0  0  0  0  0  0
  585.1547  -30.2154  206.3585 C   0  0  0  0  0  0  0  0  0  0  0  0
  585.0981  -30.0224  204.9703 C   0  0  0  0  0  0  0  0  0  0  0  0
  584.8022  -28.6556  204.3969 C   0  0  0  0  0  0  0  0  0  0  0  0
  584.6542  -27.6565  205.4395 N   0  0  0  0  0  0  0  0  0  0  0  0
  583.5129  -27.2641  206.0686 C   0  0  0  0  0  0  0  0  0  0  0  0
  583.9378  -26.3132  206.9703 C   0  0  0  0  0  0  0  0  0  0  0  0
  583.1566  -25.5278  207.9637 C   0  0  0  0  0  0  0  0  0  0  0  0
  581.7518  -25.4660  207.6809 O   0  0  0  0  0  0  0  0  0  0  0  0
  580.9937  -24.7059  208.6314 C   0  0  0  0  0  0  0  0  0  0  0  0
  581.3126  -25.0765  210.0833 C   0  0  0  0  0  0  0  0  0  0  0  0
  580.4818  -24.3176  210.9659 O   0  0  0  0  0  0  0  0  0  0  0  0
  580.9698  -22.9956  211.1718 C   0  0  0  0  0  0  0  0  0  0  0  0
  580.0364  -21.9827  210.5084 C   0  0  0  0  0  0  0  0  0  0  0  0
  579.7866  -20.7256  211.3625 C   0  0  2  0  0  0  0  0  0  0  0  0
  578.8522  -19.8690  210.6964 O   0  0  0  0  0  0  0  0  0  0  0  0
  578.5371  -18.7077  211.4434 C   0  0  0  0  0  0  0  0  0  0  0  0
  577.5799  -17.9459  210.7221 O   0  0  0  0  0  0  0  0  0  0  0  0
  579.7797  -17.8377  211.6722 C   0  0  1  0  0  0  0  0  0  0  0  0
  579.4759  -16.6768  212.4618 O   0  0  0  0  0  0  0  0  0  0  0  0
  580.8376  -18.6710  212.3883 C   0  0  2  0  0  0  0  0  0  0  0  0
  582.0645  -17.9318  212.5092 O   0  0  0  0  0  0  0  0  0  0  0  0
  581.1075  -19.9691  211.6206 C   0  0  1  0  0  0  0  0  0  0  0  0
  582.0330  -20.7678  212.3650 O   0  0  0  0  0  0  0  0  0  0  0  0
  585.2948  -26.1388  206.8266 N   0  0  0  0  0  0  0  0  0  0  0  0
  585.7208  -26.9573  205.8765 N   0  0  0  0  0  0  0  0  0  0  0  0
  585.3385  -31.1143  204.1203 C   0  0  0  0  0  0  0  0  0  0  0  0
  585.6350  -32.3810  204.6409 C   0  0  0  0  0  0  0  0  0  0  0  0
  585.9432  -33.5405  203.7275 C   0  0  0  0  0  0  0  0  0  0  0  0
  585.7700  -33.1744  202.3376 N   0  0  0  0  0  0  0  0  0  0  0  0
  586.1450  -33.8860  201.2382 C   0  0  0  0  0  0  0  0  0  0  0  0
  585.5918  -33.1891  200.1843 C   0  0  0  0  0  0  0  0  0  0  0  0
  585.5742  -33.5338  198.7372 C   0  0  0  0  0  0  0  0  0  0  0  0
  586.0946  -34.8402  198.4397 O   0  0  0  0  0  0  0  0  0  0  0  0
  586.0174  -35.1658  197.0512 C   0  0  0  0  0  0  0  0  0  0  0  0
  586.5702  -36.5668  196.8137 C   0  0  0  0  0  0  0  0  0  0  0  0
  586.6461  -36.8789  195.4219 O   0  0  0  0  0  0  0  0  0  0  0  0
  587.1220  -38.1883  195.1131 C   0  0  0  0  0  0  0  0  0  0  0  0
  588.5406  -38.2092  194.5361 C   0  0  0  0  0  0  0  0  0  0  0  0
  588.9972  -39.6079  194.0930 C   0  0  2  0  0  0  0  0  0  0  0  0
  590.4218  -39.6098  193.9236 O   0  0  0  0  0  0  0  0  0  0  0  0
  590.9092  -39.9411  192.6345 C   0  0  0  0  0  0  0  0  0  0  0  0
  590.6509  -38.8686  191.7453 O   0  0  0  0  0  0  0  0  0  0  0  0
  590.3224  -41.2501  192.0538 C   0  0  1  0  0  0  0  0  0  0  0  0
  591.0136  -42.4195  192.5352 O   0  0  0  0  0  0  0  0  0  0  0  0
  588.8419  -41.4193  192.4118 C   0  0  2  0  0  0  0  0  0  0  0  0
  588.0859  -41.9101  191.2933 O   0  0  0  0  0  0  0  0  0  0  0  0
  588.2151  -40.1037  192.8642 C   0  0  1  0  0  0  0  0  0  0  0  0
  586.8291  -40.3354  193.1661 O   0  0  0  0  0  0  0  0  0  0  0  0
  584.9762  -32.0620  200.6698 N   0  0  0  0  0  0  0  0  0  0  0  0
  585.0945  -32.0604  201.9925 N   0  0  0  0  0  0  0  0  0  0  0  0
  585.6486  -32.5600  206.0302 C   0  0  0  0  0  0  0  0  0  0  0  0
  584.1858  -30.1186  209.6399 N   0  0  0  0  0  0  0  0  0  0  0  0
  584.2060  -28.8374  209.9843 N   0  0  0  0  0  0  0  0  0  0  0  0
  586.3109  -19.2604  213.4203 C   0  0  2  0  0  0  0  0  0  0  0  0
  587.5051  -18.8235  212.7640 O   0  0  0  0  0  0  0  0  0  0  0  0
  586.2319  -18.5483  214.7761 C   0  0  1  0  0  0  0  0  0  0  0  0
  586.0768  -17.1371  214.5531 O   0  0  0  0  0  0  0  0  0  0  0  0
  585.0743  -19.0826  215.6100 C   0  0  2  0  0  0  0  0  0  0  0  0
  585.0989  -18.4567  216.9001 O   0  0  0  0  0  0  0  0  0  0  0  0
  1  2  1  0
  2  3  1  0
  3  4  1  0
  4  5  1  6
  5  6  1  0
  6  7  1  0
  7  8  1  0
  8  9  1  0
  9 10  1  0
 10 11  1  0
 11 12  1  0
 12 13  2  0
 13 14  1  0
 14 15  1  0
 15 16  1  0
 16 17  2  0
 17 18  1  0
 18 19  1  0
 19 20  1  0
 20 21  1  0
 21 22  2  0
 22 23  1  0
 23 24  1  0
 24 25  1  0
 25 26  1  0
 26 27  1  0
 27 28  1  0
 28 29  1  0
 30 29  1  6
 30 31  1  0
 31 32  1  0
 32 33  1  0
 32 34  1  0
 34 35  1  1
 34 36  1  0
 36 37  1  6
 36 38  1  0
 38 39  1  1
 22 40  1  0
 40 41  2  0
 18 42  2  0
 42 43  1  0
 43 44  1  0
 44 45  1  0
 45 46  1  0
 46 47  2  0
 47 48  1  0
 48 49  1  0
 49 50  1  0
 50 51  1  0
 51 52  1  0
 52 53  1  0
 53 54  1  0
 55 54  1  6
 55 56  1  0
 56 57  1  0
 57 58  1  0
 57 59  1  0
 59 60  1  1
 59 61  1  0
 61 62  1  6
 61 63  1  0
 63 64  1  1
 47 65  1  0
 65 66  2  0
 43 67  2  0
 14 68  1  0
 68 69  2  0
  4 70  1  0
 70 71  1  1
 70 72  1  0
 72 73  1  6
 72 74  1  0
 74 75  1  1
 74  2  1  0
 69 12  1  0
 67 16  1  0
 41 20  1  0
 66 45  1  0
 38 30  1  0
 63 55  1  0
M  END
$$$$
