
     RDKit          3D

 75 81  0  0  0  0  0  0  0  0999 V2000
  574.3560  -14.5817  194.0314 O   0  0  0  0  0  0  0  0  0  0  0  0
  574.7090  -13.3413  194.6405 C   0  0  0  0  0  0  0  0  0  0  0  0
  575.1639  -13.6096  195.9560 O   0  0  0  0  0  0  0  0  0  0  0  0
  575.4962  -12.4103  196.6869 C   0  0  1  0  0  0  0  0  0  0  0  0
  575.9155  -12.8739  198.0913 C   0  0  0  0  0  0  0  0  0  0  0  0
  574.8092  -13.5055  198.9257 C   0  0  0  0  0  0  0  0  0  0  0  0
  575.3687  -13.9121  200.1796 O   0  0  0  0  0  0  0  0  0  0  0  0
  576.4869  -14.7826  199.9916 C   0  0  0  0  0  0  0  0  0  0  0  0
  577.0610  -15.1734  201.3486 C   0  0  0  0  0  0  0  0  0  0  0  0
  578.1625  -16.0622  201.1637 O   0  0  0  0  0  0  0  0  0  0  0  0
  578.8502  -16.3825  202.3838 C   0  0  0  0  0  0  0  0  0  0  0  0
  580.0276  -17.2732  202.2060 C   0  0  0  0  0  0  0  0  0  0  0  0
  580.4984  -17.8721  201.0572 C   0  0  0  0  0  0  0  0  0  0  0  0
  581.4982  -18.6850  201.5016 N   0  0  0  0  0  0  0  0  0  0  0  0
  582.1908  -19.7222  200.7601 C   0  0  0  0  0  0  0  0  0  0  0  0
  582.5095  -20.8828  201.6764 C   0  0  0  0  0  0  0  0  0  0  0  0
  581.8645  -21.0120  202.9162 C   0  0  0  0  0  0  0  0  0  0  0  0
  582.0843  -22.1346  203.7282 C   0  0  0  0  0  0  0  0  0  0  0  0
  581.3865  -22.2650  205.0625 C   0  0  0  0  0  0  0  0  0  0  0  0
  582.2791  -21.9636  206.1669 N   0  0  0  0  0  0  0  0  0  0  0  0
  582.2935  -20.8535  206.9541 C   0  0  0  0  0  0  0  0  0  0  0  0
  583.3183  -21.0879  207.8444 C   0  0  0  0  0  0  0  0  0  0  0  0
  583.8132  -20.2475  208.9681 C   0  0  0  0  0  0  0  0  0  0  0  0
  583.1328  -18.9916  209.0983 O   0  0  0  0  0  0  0  0  0  0  0  0
  582.4266  -18.8311  210.3359 C   0  0  0  0  0  0  0  0  0  0  0  0
  583.3223  -19.0226  211.5640 C   0  0  0  0  0  0  0  0  0  0  0  0
  582.5626  -18.7901  212.7531 O   0  0  0  0  0  0  0  0  0  0  0  0
  583.3108  -19.0480  213.9370 C   0  0  0  0  0  0  0  0  0  0  0  0
  582.4743  -18.7076  215.1707 C   0  0  0  0  0  0  0  0  0  0  0  0
  583.1571  -19.0830  216.4992 C   0  0  2  0  0  0  0  0  0  0  0  0
  583.0998  -20.5016  216.6859 O   0  0  0  0  0  0  0  0  0  0  0  0
  583.7485  -20.9300  217.8699 C   0  0  0  0  0  0  0  0  0  0  0  0
  583.6722  -22.3460  217.9461 O   0  0  0  0  0  0  0  0  0  0  0  0
  583.0798  -20.3382  219.1172 C   0  0  1  0  0  0  0  0  0  0  0  0
  583.7552  -20.7375  220.3206 O   0  0  0  0  0  0  0  0  0  0  0  0
  583.0992  -18.8169  219.0100 C   0  0  2  0  0  0  0  0  0  0  0  0
  582.3697  -18.2257  220.0984 O   0  0  0  0  0  0  0  0  0  0  0  0
  582.4770  -18.3650  217.6849 C   0  0  1  0  0  0  0  0  0  0  0  0
  582.5949  -16.9429  217.5749 O   0  0  0  0  0  0  0  0  0  0  0  0
  583.9037  -22.2953  207.5409 N   0  0  0  0  0  0  0  0  0  0  0  0
  583.2675  -22.8166  206.5029 N   0  0  0  0  0  0  0  0  0  0  0  0
  582.9483  -23.1447  203.2747 C   0  0  0  0  0  0  0  0  0  0  0  0
  583.5836  -23.0443  202.0298 C   0  0  0  0  0  0  0  0  0  0  0  0
  584.4708  -24.1527  201.5218 C   0  0  0  0  0  0  0  0  0  0  0  0
  584.3593  -25.3354  202.3493 N   0  0  0  0  0  0  0  0  0  0  0  0
  584.5152  -26.6338  201.9679 C   0  0  0  0  0  0  0  0  0  0  0  0
  584.4883  -27.3363  203.1546 C   0  0  0  0  0  0  0  0  0  0  0  0
  584.7098  -28.7881  203.3911 C   0  0  0  0  0  0  0  0  0  0  0  0
  584.8158  -29.5682  202.1884 O   0  0  0  0  0  0  0  0  0  0  0  0
  585.8337  -30.5674  202.2623 C   0  0  0  0  0  0  0  0  0  0  0  0
  585.3350  -31.7595  203.0716 C   0  0  0  0  0  0  0  0  0  0  0  0
  586.2957  -32.8159  203.1080 O   0  0  0  0  0  0  0  0  0  0  0  0
  587.2419  -32.7464  204.1739 C   0  0  0  0  0  0  0  0  0  0  0  0
  587.3201  -34.0245  205.0141 C   0  0  0  0  0  0  0  0  0  0  0  0
  588.4460  -33.9981  206.0594 C   0  0  2  0  0  0  0  0  0  0  0  0
  588.5060  -35.2684  206.7236 O   0  0  0  0  0  0  0  0  0  0  0  0
  588.3181  -35.2619  208.1284 C   0  0  0  0  0  0  0  0  0  0  0  0
  586.9557  -35.0020  208.4182 O   0  0  0  0  0  0  0  0  0  0  0  0
  589.2120  -34.2474  208.8813 C   0  0  1  0  0  0  0  0  0  0  0  0
  590.5328  -34.7655  209.1342 O   0  0  0  0  0  0  0  0  0  0  0  0
  589.3798  -32.9424  208.0955 C   0  0  2  0  0  0  0  0  0  0  0  0
  589.2949  -31.7973  208.9586 O   0  0  0  0  0  0  0  0  0  0  0  0
  588.3178  -32.7949  207.0099 C   0  0  1  0  0  0  0  0  0  0  0  0
  588.5276  -31.5466  206.3290 O   0  0  0  0  0  0  0  0  0  0  0  0
  584.2477  -26.4611  204.1848 N   0  0  0  0  0  0  0  0  0  0  0  0
  584.1664  -25.2358  203.6795 N   0  0  0  0  0  0  0  0  0  0  0  0
  583.3801  -21.8969  201.2522 C   0  0  0  0  0  0  0  0  0  0  0  0
  581.7294  -18.5057  202.8141 N   0  0  0  0  0  0  0  0  0  0  0  0
  580.8179  -17.6520  203.2625 N   0  0  0  0  0  0  0  0  0  0  0  0
  576.5900  -11.6050  195.9527 C   0  0  2  0  0  0  0  0  0  0  0  0
  576.7963  -10.3271  196.5627 O   0  0  0  0  0  0  0  0  0  0  0  0
  576.2075  -11.3700  194.4864 C   0  0  1  0  0  0  0  0  0  0  0  0
  577.3220  -10.7721  193.8040 O   0  0  0  0  0  0  0  0  0  0  0  0
  575.8090  -12.6742  193.8075 C   0  0  2  0  0  0  0  0  0  0  0  0
  575.3703  -12.3914  192.4717 O   0  0  0  0  0  0  0  0  0  0  0  0
  1  2  1  0
  2  3  1  0
  3  4  1  0
  4  5  1  1
  5  6  1  0
  6  7  1  0
  7  8  1  0
  8  9  1  0
  9 10  1  0
 10 11  1  0
 11 12  1  0
 12 13  2  0
 13 14  1  0
 14 15  1  0
 15 16  1  0
 16 17  2  0
 17 18  1  0
 18 19  1  0
 19 20  1  0
 20 21  1  0
 21 22  2  0
 22 23  1  0
 23 24  1  0
 24 25  1  0
 25 26  1  0
 26 27  1  0
 27 28  1  0
 28 29  1  0
 30 29  1  6
 30 31  1  0
 31 32  1  0
 32 33  1  0
 32 34  1  0
 34 35  1  1
 34 36  1  0
 36 37  1  1
 36 38  1  0
 38 39  1  6
 22 40  1  0
 40 41  2  0
 18 42  2  0
 42 43  1  0
 43 44  1  0
 44 45  1  0
 45 46  1  0
 46 47  2  0
 47 48  1  0
 48 49  1  0
 49 50  1  0
 50 51  1  0
 51 52  1  0
 52 53  1  0
 53 54  1  0
 55 54  1  6
 55 56  1  0
 56 57  1  0
 57 58  1  0
 57 59  1  0
 59 60  1  6
 59 61  1  0
 61 62  1  1
 61 63  1  0
 63 64  1  6
 47 65  1  0
 65 66  2  0
 43 67  2  0
 14 68  1  0
 68 69  2  0
  4 70  1  0
 70 71  1  1
 70 72  1  0
 72 73  1  6
 72 74  1  0
 74 75  1  6
 74  2  1  0
 69 12  1  0
 67 16  1  0
 41 20  1  0
 66 45  1  0
 38 30  1  0
 63 55  1  0
M  END
$$$$
