
     RDKit          3D

 75 81  0  0  0  0  0  0  0  0999 V2000
  584.2424  -23.6865  222.1780 O   0  0  0  0  0  0  0  0  0  0  0  0
  584.2693  -22.3092  221.8081 C   0  0  0  0  0  0  0  0  0  0  0  0
  583.4527  -22.1447  220.6612 O   0  0  0  0  0  0  0  0  0  0  0  0
  583.4537  -20.7892  220.1653 C   0  0  1  0  0  0  0  0  0  0  0  0
  582.5719  -20.7992  218.9062 C   0  0  0  0  0  0  0  0  0  0  0  0
  582.9996  -21.7766  217.8196 C   0  0  0  0  0  0  0  0  0  0  0  0
  582.0824  -21.6621  216.7259 O   0  0  0  0  0  0  0  0  0  0  0  0
  582.7354  -21.1815  215.5485 C   0  0  0  0  0  0  0  0  0  0  0  0
  581.7943  -21.3107  214.3563 C   0  0  0  0  0  0  0  0  0  0  0  0
  582.4113  -20.7507  213.1973 O   0  0  0  0  0  0  0  0  0  0  0  0
  583.2404  -21.6824  212.4842 C   0  0  0  0  0  0  0  0  0  0  0  0
  582.4885  -22.7545  211.7796 C   0  0  0  0  0  0  0  0  0  0  0  0
  582.9686  -23.7770  210.9895 C   0  0  0  0  0  0  0  0  0  0  0  0
  581.8409  -24.3579  210.4904 N   0  0  0  0  0  0  0  0  0  0  0  0
  581.7478  -25.3365  209.4232 C   0  0  0  0  0  0  0  0  0  0  0  0
  582.0668  -24.6821  208.0972 C   0  0  0  0  0  0  0  0  0  0  0  0
  582.0268  -25.4241  206.9066 C   0  0  0  0  0  0  0  0  0  0  0  0
  582.2278  -24.8035  205.6648 C   0  0  0  0  0  0  0  0  0  0  0  0
  582.1844  -25.6105  204.3876 C   0  0  0  0  0  0  0  0  0  0  0  0
  583.4939  -26.1281  204.0348 N   0  0  0  0  0  0  0  0  0  0  0  0
  583.8749  -26.7215  202.8707 C   0  0  0  0  0  0  0  0  0  0  0  0
  585.2105  -27.0018  203.0596 C   0  0  0  0  0  0  0  0  0  0  0  0
  586.1899  -27.6342  202.1350 C   0  0  0  0  0  0  0  0  0  0  0  0
  587.4993  -27.7966  202.6975 O   0  0  0  0  0  0  0  0  0  0  0  0
  587.5538  -28.7017  203.8083 C   0  0  0  0  0  0  0  0  0  0  0  0
  587.5315  -30.1730  203.3818 C   0  0  0  0  0  0  0  0  0  0  0  0
  587.5405  -31.0092  204.5420 O   0  0  0  0  0  0  0  0  0  0  0  0
  587.4980  -32.3947  204.2154 C   0  0  0  0  0  0  0  0  0  0  0  0
  587.4366  -33.2329  205.4926 C   0  0  0  0  0  0  0  0  0  0  0  0
  587.4939  -34.7503  205.2355 C   0  0  2  0  0  0  0  0  0  0  0  0
  586.5250  -35.1074  204.2435 O   0  0  0  0  0  0  0  0  0  0  0  0
  586.5472  -36.4861  203.9200 C   0  0  0  0  0  0  0  0  0  0  0  0
  585.5841  -36.7334  202.9061 O   0  0  0  0  0  0  0  0  0  0  0  0
  586.2034  -37.3505  205.1398 C   0  0  1  0  0  0  0  0  0  0  0  0
  586.2610  -38.7519  204.8295 O   0  0  0  0  0  0  0  0  0  0  0  0
  587.1950  -37.0409  206.2565 C   0  0  2  0  0  0  0  0  0  0  0  0
  586.8315  -37.7369  207.4605 O   0  0  0  0  0  0  0  0  0  0  0  0
  587.2313  -35.5355  206.5388 C   0  0  1  0  0  0  0  0  0  0  0  0
  588.2355  -35.2693  207.5233 O   0  0  0  0  0  0  0  0  0  0  0  0
  585.5721  -26.6104  204.3279 N   0  0  0  0  0  0  0  0  0  0  0  0
  584.5090  -26.0888  204.9211 N   0  0  0  0  0  0  0  0  0  0  0  0
  582.4518  -23.4176  205.6241 C   0  0  0  0  0  0  0  0  0  0  0  0
  582.4725  -22.6563  206.8003 C   0  0  0  0  0  0  0  0  0  0  0  0
  582.6622  -21.1611  206.7514 C   0  0  0  0  0  0  0  0  0  0  0  0
  581.8474  -20.5622  205.7154 N   0  0  0  0  0  0  0  0  0  0  0  0
  582.2259  -20.2275  204.4504 C   0  0  0  0  0  0  0  0  0  0  0  0
  581.0456  -19.8725  203.8313 C   0  0  0  0  0  0  0  0  0  0  0  0
  580.8043  -19.5077  202.4094 C   0  0  0  0  0  0  0  0  0  0  0  0
  581.9966  -19.4516  201.6085 O   0  0  0  0  0  0  0  0  0  0  0  0
  581.7253  -19.2340  200.2232 C   0  0  0  0  0  0  0  0  0  0  0  0
  581.8204  -17.7466  199.9016 C   0  0  0  0  0  0  0  0  0  0  0  0
  581.5972  -17.4877  198.5148 O   0  0  0  0  0  0  0  0  0  0  0  0
  581.6808  -16.1170  198.1266 C   0  0  0  0  0  0  0  0  0  0  0  0
  580.3359  -15.5077  197.7196 C   0  0  0  0  0  0  0  0  0  0  0  0
  580.4304  -14.0212  197.3418 C   0  0  2  0  0  0  0  0  0  0  0  0
  580.5942  -13.2389  198.5331 O   0  0  0  0  0  0  0  0  0  0  0  0
  579.6002  -12.2633  198.7959 C   0  0  0  0  0  0  0  0  0  0  0  0
  578.4049  -12.9083  199.1997 O   0  0  0  0  0  0  0  0  0  0  0  0
  579.3055  -11.3234  197.6023 C   0  0  1  0  0  0  0  0  0  0  0  0
  580.2468  -10.2354  197.5183 O   0  0  0  0  0  0  0  0  0  0  0  0
  579.3538  -12.0689  196.2642 C   0  0  2  0  0  0  0  0  0  0  0  0
  578.2844  -11.6582  195.3974 O   0  0  0  0  0  0  0  0  0  0  0  0
  579.2538  -13.5796  196.4539 C   0  0  1  0  0  0  0  0  0  0  0  0
  579.2892  -14.2080  195.1618 O   0  0  0  0  0  0  0  0  0  0  0  0
  580.0257  -19.9335  204.7484 N   0  0  0  0  0  0  0  0  0  0  0  0
  580.5289  -20.3545  205.9029 N   0  0  0  0  0  0  0  0  0  0  0  0
  582.3079  -23.3022  208.0324 C   0  0  0  0  0  0  0  0  0  0  0  0
  580.7327  -23.8265  211.0360 N   0  0  0  0  0  0  0  0  0  0  0  0
  581.1183  -22.8261  211.8177 N   0  0  0  0  0  0  0  0  0  0  0  0
  582.9644  -19.8069  221.2513 C   0  0  2  0  0  0  0  0  0  0  0  0
  583.1365  -18.4467  220.8415 O   0  0  0  0  0  0  0  0  0  0  0  0
  583.7388  -20.0053  222.5600 C   0  0  1  0  0  0  0  0  0  0  0  0
  583.1381  -19.1959  223.5844 O   0  0  0  0  0  0  0  0  0  0  0  0
  583.7437  -21.4703  222.9779 C   0  0  2  0  0  0  0  0  0  0  0  0
  584.5563  -21.6197  224.1502 O   0  0  0  0  0  0  0  0  0  0  0  0
  1  2  1  0
  2  3  1  0
  3  4  1  0
  4  5  1  6
  5  6  1  0
  6  7  1  0
  7  8  1  0
  8  9  1  0
  9 10  1  0
 10 11  1  0
 11 12  1  0
 12 13  2  0
 13 14  1  0
 14 15  1  0
 15 16  1  0
 16 17  2  0
 17 18  1  0
 18 19  1  0
 19 20  1  0
 20 21  1  0
 21 22  2  0
 22 23  1  0
 23 24  1  0
 24 25  1  0
 25 26  1  0
 26 27  1  0
 27 28  1  0
 28 29  1  0
 30 29  1  1
 30 31  1  0
 31 32  1  0
 32 33  1  0
 32 34  1  0
 34 35  1  6
 34 36  1  0
 36 37  1  1
 36 38  1  0
 38 39  1  1
 22 40  1  0
 40 41  2  0
 18 42  2  0
 42 43  1  0
 43 44  1  0
 44 45  1  0
 45 46  1  0
 46 47  2  0
 47 48  1  0
 48 49  1  0
 49 50  1  0
 50 51  1  0
 51 52  1  0
 52 53  1  0
 53 54  1  0
 55 54  1  1
 55 56  1  0
 56 57  1  0
 57 58  1  0
 57 59  1  0
 59 60  1  6
 59 61  1  0
 61 62  1  6
 61 63  1  0
 63 64  1  6
 47 65  1  0
 65 66  2  0
 43 67  2  0
 14 68  1  0
 68 69  2  0
  4 70  1  0
 70 71  1  6
 70 72  1  0
 72 73  1  1
 72 74  1  0
 74 75  1  1
 74  2  1  0
 69 12  1  0
 67 16  1  0
 41 20  1  0
 66 45  1  0
 38 30  1  0
 63 55  1  0
M  END
$$$$
