
     RDKit          3D

 75 81  0  0  0  0  0  0  0  0999 V2000
  584.2209  -22.0823  222.5075 O   0  0  0  0  0  0  0  0  0  0  0  0
  583.6565  -20.9288  221.8869 C   0  0  0  0  0  0  0  0  0  0  0  0
  583.6804  -21.1268  220.4835 O   0  0  0  0  0  0  0  0  0  0  0  0
  583.1806  -19.9883  219.7508 C   0  0  1  0  0  0  0  0  0  0  0  0
  583.3243  -20.3471  218.2629 C   0  0  0  0  0  0  0  0  0  0  0  0
  583.3315  -19.1631  217.3054 C   0  0  0  0  0  0  0  0  0  0  0  0
  583.3851  -19.6683  215.9665 O   0  0  0  0  0  0  0  0  0  0  0  0
  582.1472  -20.2769  215.5911 C   0  0  0  0  0  0  0  0  0  0  0  0
  582.1616  -20.5790  214.0970 C   0  0  0  0  0  0  0  0  0  0  0  0
  580.8968  -21.1122  213.7050 O   0  0  0  0  0  0  0  0  0  0  0  0
  580.9513  -22.4986  213.3324 C   0  0  0  0  0  0  0  0  0  0  0  0
  581.0821  -22.7336  211.8698 C   0  0  0  0  0  0  0  0  0  0  0  0
  581.0325  -21.8235  210.8357 C   0  0  0  0  0  0  0  0  0  0  0  0
  581.0579  -22.6020  209.7171 N   0  0  0  0  0  0  0  0  0  0  0  0
  580.7992  -22.1938  208.3490 C   0  0  0  0  0  0  0  0  0  0  0  0
  581.8837  -22.7282  207.4399 C   0  0  0  0  0  0  0  0  0  0  0  0
  581.7906  -22.5718  206.0483 C   0  0  0  0  0  0  0  0  0  0  0  0
  582.8362  -22.9794  205.2067 C   0  0  0  0  0  0  0  0  0  0  0  0
  582.7269  -22.8084  203.7090 C   0  0  0  0  0  0  0  0  0  0  0  0
  583.8574  -23.4005  203.0171 N   0  0  0  0  0  0  0  0  0  0  0  0
  583.9089  -24.5928  202.3628 C   0  0  0  0  0  0  0  0  0  0  0  0
  585.1982  -24.6550  201.8816 C   0  0  0  0  0  0  0  0  0  0  0  0
  585.8596  -25.7095  201.0664 C   0  0  0  0  0  0  0  0  0  0  0  0
  584.9530  -26.4771  200.2626 O   0  0  0  0  0  0  0  0  0  0  0  0
  585.5774  -27.5273  199.5123 C   0  0  0  0  0  0  0  0  0  0  0  0
  585.3741  -28.9109  200.1380 C   0  0  0  0  0  0  0  0  0  0  0  0
  585.9796  -29.9063  199.3087 O   0  0  0  0  0  0  0  0  0  0  0  0
  585.9973  -31.1907  199.9235 C   0  0  0  0  0  0  0  0  0  0  0  0
  585.0934  -32.1536  199.1531 C   0  0  0  0  0  0  0  0  0  0  0  0
  585.1674  -33.6057  199.6609 C   0  0  2  0  0  0  0  0  0  0  0  0
  586.5035  -34.0996  199.5140 O   0  0  0  0  0  0  0  0  0  0  0  0
  586.6616  -35.4198  200.0019 C   0  0  0  0  0  0  0  0  0  0  0  0
  588.0202  -35.8040  199.8489 O   0  0  0  0  0  0  0  0  0  0  0  0
  585.7849  -36.4101  199.2247 C   0  0  1  0  0  0  0  0  0  0  0  0
  585.9107  -37.7457  199.7383 O   0  0  0  0  0  0  0  0  0  0  0  0
  584.3297  -35.9652  199.3299 C   0  0  2  0  0  0  0  0  0  0  0  0
  583.4888  -36.7944  198.5105 O   0  0  0  0  0  0  0  0  0  0  0  0
  584.1818  -34.5064  198.8855 C   0  0  1  0  0  0  0  0  0  0  0  0
  582.8259  -34.0933  199.0840 O   0  0  0  0  0  0  0  0  0  0  0  0
  585.8807  -23.5332  202.2918 N   0  0  0  0  0  0  0  0  0  0  0  0
  585.0531  -22.7781  202.9982 N   0  0  0  0  0  0  0  0  0  0  0  0
  583.9942  -23.5322  205.7776 C   0  0  0  0  0  0  0  0  0  0  0  0
  584.1151  -23.6753  207.1663 C   0  0  0  0  0  0  0  0  0  0  0  0
  585.3790  -24.2215  207.7811 C   0  0  0  0  0  0  0  0  0  0  0  0
  585.2842  -25.6503  207.9942 N   0  0  0  0  0  0  0  0  0  0  0  0
  586.0375  -26.6279  207.4175 C   0  0  0  0  0  0  0  0  0  0  0  0
  585.6710  -27.7738  208.0921 C   0  0  0  0  0  0  0  0  0  0  0  0
  586.2252  -29.1494  207.9755 C   0  0  0  0  0  0  0  0  0  0  0  0
  587.4369  -29.2297  207.2064 O   0  0  0  0  0  0  0  0  0  0  0  0
  587.9635  -30.5555  207.1363 C   0  0  0  0  0  0  0  0  0  0  0  0
  587.9790  -31.0335  205.6885 C   0  0  0  0  0  0  0  0  0  0  0  0
  588.4398  -32.3811  205.5791 O   0  0  0  0  0  0  0  0  0  0  0  0
  587.4586  -33.3320  205.1671 C   0  0  0  0  0  0  0  0  0  0  0  0
  587.9285  -34.7862  205.2672 C   0  0  0  0  0  0  0  0  0  0  0  0
  586.8698  -35.8011  204.8086 C   0  0  2  0  0  0  0  0  0  0  0  0
  586.9195  -36.9551  205.6595 O   0  0  0  0  0  0  0  0  0  0  0  0
  587.1935  -38.1967  205.0331 C   0  0  0  0  0  0  0  0  0  0  0  0
  588.5554  -38.2351  204.6436 O   0  0  0  0  0  0  0  0  0  0  0  0
  586.2947  -38.5001  203.8104 C   0  0  1  0  0  0  0  0  0  0  0  0
  585.0220  -39.0575  204.1928 O   0  0  0  0  0  0  0  0  0  0  0  0
  586.0085  -37.2399  202.9866 C   0  0  2  0  0  0  0  0  0  0  0  0
  586.0850  -37.5076  201.5773 O   0  0  0  0  0  0  0  0  0  0  0  0
  586.9917  -36.1182  203.3079 C   0  0  1  0  0  0  0  0  0  0  0  0
  586.6732  -34.9802  202.4899 O   0  0  0  0  0  0  0  0  0  0  0  0
  584.6747  -27.4656  208.9851 N   0  0  0  0  0  0  0  0  0  0  0  0
  584.4420  -26.1602  208.9146 N   0  0  0  0  0  0  0  0  0  0  0  0
  583.0434  -23.2973  207.9855 C   0  0  0  0  0  0  0  0  0  0  0  0
  581.2487  -23.8970  210.0249 N   0  0  0  0  0  0  0  0  0  0  0  0
  581.2470  -23.9926  211.3483 N   0  0  0  0  0  0  0  0  0  0  0  0
  581.7305  -19.6606  220.1674 C   0  0  2  0  0  0  0  0  0  0  0  0
  581.2872  -18.4279  219.5916 O   0  0  0  0  0  0  0  0  0  0  0  0
  581.6119  -19.5373  221.6914 C   0  0  1  0  0  0  0  0  0  0  0  0
  580.2245  -19.4040  222.0416 O   0  0  0  0  0  0  0  0  0  0  0  0
  582.2198  -20.7477  222.3887 C   0  0  2  0  0  0  0  0  0  0  0  0
  582.1711  -20.5437  223.8074 O   0  0  0  0  0  0  0  0  0  0  0  0
  1  2  1  0
  2  3  1  0
  3  4  1  0
  4  5  1  6
  5  6  1  0
  6  7  1  0
  7  8  1  0
  8  9  1  0
  9 10  1  0
 10 11  1  0
 11 12  1  0
 12 13  2  0
 13 14  1  0
 14 15  1  0
 15 16  1  0
 16 17  2  0
 17 18  1  0
 18 19  1  0
 19 20  1  0
 20 21  1  0
 21 22  2  0
 22 23  1  0
 23 24  1  0
 24 25  1  0
 25 26  1  0
 26 27  1  0
 27 28  1  0
 28 29  1  0
 30 29  1  6
 30 31  1  0
 31 32  1  0
 32 33  1  0
 32 34  1  0
 34 35  1  1
 34 36  1  0
 36 37  1  6
 36 38  1  0
 38 39  1  1
 22 40  1  0
 40 41  2  0
 18 42  2  0
 42 43  1  0
 43 44  1  0
 44 45  1  0
 45 46  1  0
 46 47  2  0
 47 48  1  0
 48 49  1  0
 49 50  1  0
 50 51  1  0
 51 52  1  0
 52 53  1  0
 53 54  1  0
 55 54  1  1
 55 56  1  0
 56 57  1  0
 57 58  1  0
 57 59  1  0
 59 60  1  1
 59 61  1  0
 61 62  1  6
 61 63  1  0
 63 64  1  6
 47 65  1  0
 65 66  2  0
 43 67  2  0
 14 68  1  0
 68 69  2  0
  4 70  1  0
 70 71  1  6
 70 72  1  0
 72 73  1  6
 72 74  1  0
 74 75  1  1
 74  2  1  0
 69 12  1  0
 67 16  1  0
 41 20  1  0
 66 45  1  0
 38 30  1  0
 63 55  1  0
M  END
$$$$
