
     RDKit          3D

 75 81  0  0  0  0  0  0  0  0999 V2000
  590.4341  -39.6598  196.1730 O   0  0  0  0  0  0  0  0  0  0  0  0
  590.6309  -38.2560  196.3311 C   0  0  0  0  0  0  0  0  0  0  0  0
  589.3580  -37.6414  196.4370 O   0  0  0  0  0  0  0  0  0  0  0  0
  589.4395  -36.2044  196.5445 C   0  0  1  0  0  0  0  0  0  0  0  0
  587.9877  -35.7017  196.5973 C   0  0  0  0  0  0  0  0  0  0  0  0
  587.8229  -34.1879  196.6088 C   0  0  0  0  0  0  0  0  0  0  0  0
  586.4253  -33.8874  196.5256 O   0  0  0  0  0  0  0  0  0  0  0  0
  585.9197  -33.4171  197.7773 C   0  0  0  0  0  0  0  0  0  0  0  0
  585.5314  -31.9486  197.6495 C   0  0  0  0  0  0  0  0  0  0  0  0
  584.8389  -31.5331  198.8266 O   0  0  0  0  0  0  0  0  0  0  0  0
  585.3068  -32.1771  200.0227 C   0  0  0  0  0  0  0  0  0  0  0  0
  585.0607  -31.4043  201.2691 C   0  0  0  0  0  0  0  0  0  0  0  0
  584.7283  -30.0745  201.4156 C   0  0  0  0  0  0  0  0  0  0  0  0
  584.7747  -29.8752  202.7632 N   0  0  0  0  0  0  0  0  0  0  0  0
  584.7363  -28.6099  203.4723 C   0  0  0  0  0  0  0  0  0  0  0  0
  585.4299  -28.7495  204.8094 C   0  0  0  0  0  0  0  0  0  0  0  0
  585.6511  -27.6253  205.6200 C   0  0  0  0  0  0  0  0  0  0  0  0
  586.2070  -27.7598  206.9009 C   0  0  0  0  0  0  0  0  0  0  0  0
  586.4431  -26.5437  207.7666 C   0  0  0  0  0  0  0  0  0  0  0  0
  585.1962  -25.9748  208.2449 N   0  0  0  0  0  0  0  0  0  0  0  0
  584.9504  -25.3847  209.4464 C   0  0  0  0  0  0  0  0  0  0  0  0
  583.6259  -25.0130  209.3719 C   0  0  0  0  0  0  0  0  0  0  0  0
  582.7787  -24.3055  210.3698 C   0  0  0  0  0  0  0  0  0  0  0  0
  583.3585  -24.2365  211.6799 O   0  0  0  0  0  0  0  0  0  0  0  0
  582.5761  -23.5023  212.6310 C   0  0  0  0  0  0  0  0  0  0  0  0
  581.1647  -24.0708  212.8097 C   0  0  0  0  0  0  0  0  0  0  0  0
  580.5052  -23.3905  213.8808 O   0  0  0  0  0  0  0  0  0  0  0  0
  580.1719  -22.0462  213.5494 C   0  0  0  0  0  0  0  0  0  0  0  0
  580.6346  -21.1022  214.6596 C   0  0  0  0  0  0  0  0  0  0  0  0
  580.3561  -19.6174  214.3598 C   0  0  2  0  0  0  0  0  0  0  0  0
  580.8975  -18.8051  215.4075 O   0  0  0  0  0  0  0  0  0  0  0  0
  580.7188  -17.4185  215.1803 C   0  0  0  0  0  0  0  0  0  0  0  0
  581.3195  -16.6993  216.2475 O   0  0  0  0  0  0  0  0  0  0  0  0
  579.2307  -17.0505  215.1215 C   0  0  1  0  0  0  0  0  0  0  0  0
  579.0409  -15.6520  214.8534 O   0  0  0  0  0  0  0  0  0  0  0  0
  578.5654  -17.8691  214.0200 C   0  0  2  0  0  0  0  0  0  0  0  0
  577.1452  -17.6476  214.0154 O   0  0  0  0  0  0  0  0  0  0  0  0
  578.8394  -19.3629  214.2225 C   0  0  1  0  0  0  0  0  0  0  0  0
  578.2820  -20.0927  213.1248 O   0  0  0  0  0  0  0  0  0  0  0  0
  583.1162  -25.4229  208.1616 N   0  0  0  0  0  0  0  0  0  0  0  0
  584.0837  -26.0230  207.4849 N   0  0  0  0  0  0  0  0  0  0  0  0
  586.5241  -29.0435  207.3745 C   0  0  0  0  0  0  0  0  0  0  0  0
  586.2893  -30.1797  206.5888 C   0  0  0  0  0  0  0  0  0  0  0  0
  586.5826  -31.5609  207.1181 C   0  0  0  0  0  0  0  0  0  0  0  0
  586.3044  -32.5746  206.1226 N   0  0  0  0  0  0  0  0  0  0  0  0
  586.8917  -32.7239  204.9025 C   0  0  0  0  0  0  0  0  0  0  0  0
  586.4035  -33.9289  204.4419 C   0  0  0  0  0  0  0  0  0  0  0  0
  586.7602  -34.6750  203.2054 C   0  0  0  0  0  0  0  0  0  0  0  0
  586.1774  -35.9864  203.1237 O   0  0  0  0  0  0  0  0  0  0  0  0
  586.1765  -36.5121  201.7957 C   0  0  0  0  0  0  0  0  0  0  0  0
  587.4179  -36.0385  201.0477 C   0  0  0  0  0  0  0  0  0  0  0  0
  587.9261  -37.0452  200.1711 O   0  0  0  0  0  0  0  0  0  0  0  0
  587.1089  -37.3405  199.0390 C   0  0  0  0  0  0  0  0  0  0  0  0
  587.7460  -38.3307  198.0595 C   0  0  0  0  0  0  0  0  0  0  0  0
  586.8504  -38.6563  196.8541 C   0  0  2  0  0  0  0  0  0  0  0  0
  585.9003  -39.6641  197.2281 O   0  0  0  0  0  0  0  0  0  0  0  0
  585.9307  -40.8733  196.4893 C   0  0  0  0  0  0  0  0  0  0  0  0
  587.0858  -41.6123  196.8463 O   0  0  0  0  0  0  0  0  0  0  0  0
  585.8928  -40.6778  194.9546 C   0  0  1  0  0  0  0  0  0  0  0  0
  584.5515  -40.4951  194.4601 O   0  0  0  0  0  0  0  0  0  0  0  0
  586.7081  -39.4568  194.5152 C   0  0  2  0  0  0  0  0  0  0  0  0
  587.4703  -39.7356  193.3299 O   0  0  0  0  0  0  0  0  0  0  0  0
  587.6766  -39.0016  195.6028 C   0  0  1  0  0  0  0  0  0  0  0  0
  588.4145  -37.8685  195.1157 O   0  0  0  0  0  0  0  0  0  0  0  0
  585.4989  -34.4195  205.3506 N   0  0  0  0  0  0  0  0  0  0  0  0
  585.4426  -33.5790  206.3771 N   0  0  0  0  0  0  0  0  0  0  0  0
  585.7693  -30.0193  205.2979 C   0  0  0  0  0  0  0  0  0  0  0  0
  584.9853  -31.0280  203.4226 N   0  0  0  0  0  0  0  0  0  0  0  0
  585.1810  -31.9734  202.5124 N   0  0  0  0  0  0  0  0  0  0  0  0
  590.2783  -35.7924  197.7735 C   0  0  2  0  0  0  0  0  0  0  0  0
  590.5253  -34.3829  197.7888 O   0  0  0  0  0  0  0  0  0  0  0  0
  591.6348  -36.5076  197.7769 C   0  0  1  0  0  0  0  0  0  0  0  0
  592.3056  -36.2288  199.0169 O   0  0  0  0  0  0  0  0  0  0  0  0
  591.4631  -38.0103  197.5943 C   0  0  2  0  0  0  0  0  0  0  0  0
  592.7574  -38.6222  197.5089 O   0  0  0  0  0  0  0  0  0  0  0  0
  1  2  1  0
  2  3  1  0
  3  4  1  0
  4  5  1  1
  5  6  1  0
  6  7  1  0
  7  8  1  0
  8  9  1  0
  9 10  1  0
 10 11  1  0
 11 12  1  0
 12 13  2  0
 13 14  1  0
 14 15  1  0
 15 16  1  0
 16 17  2  0
 17 18  1  0
 18 19  1  0
 19 20  1  0
 20 21  1  0
 21 22  2  0
 22 23  1  0
 23 24  1  0
 24 25  1  0
 25 26  1  0
 26 27  1  0
 27 28  1  0
 28 29  1  0
 30 29  1  1
 30 31  1  0
 31 32  1  0
 32 33  1  0
 32 34  1  0
 34 35  1  6
 34 36  1  0
 36 37  1  1
 36 38  1  0
 38 39  1  6
 22 40  1  0
 40 41  2  0
 18 42  2  0
 42 43  1  0
 43 44  1  0
 44 45  1  0
 45 46  1  0
 46 47  2  0
 47 48  1  0
 48 49  1  0
 49 50  1  0
 50 51  1  0
 51 52  1  0
 52 53  1  0
 53 54  1  0
 55 54  1  1
 55 56  1  0
 56 57  1  0
 57 58  1  0
 57 59  1  0
 59 60  1  1
 59 61  1  0
 61 62  1  6
 61 63  1  0
 63 64  1  6
 47 65  1  0
 65 66  2  0
 43 67  2  0
 14 68  1  0
 68 69  2  0
  4 70  1  0
 70 71  1  6
 70 72  1  0
 72 73  1  1
 72 74  1  0
 74 75  1  6
 74  2  1  0
 69 12  1  0
 67 16  1  0
 41 20  1  0
 66 45  1  0
 38 30  1  0
 63 55  1  0
M  END
$$$$
