
     RDKit          3D

 75 81  0  0  0  0  0  0  0  0999 V2000
  579.3398  -21.4055  216.7056 O   0  0  0  0  0  0  0  0  0  0  0  0
  580.6252  -22.0235  216.7173 C   0  0  0  0  0  0  0  0  0  0  0  0
  581.1501  -21.9744  215.4014 O   0  0  0  0  0  0  0  0  0  0  0  0
  582.4324  -22.6270  215.2875 C   0  0  1  0  0  0  0  0  0  0  0  0
  582.8267  -22.5279  213.8050 C   0  0  0  0  0  0  0  0  0  0  0  0
  581.6761  -22.6546  212.8155 C   0  0  0  0  0  0  0  0  0  0  0  0
  582.2051  -22.5195  211.4917 O   0  0  0  0  0  0  0  0  0  0  0  0
  582.5934  -23.7865  210.9556 C   0  0  0  0  0  0  0  0  0  0  0  0
  583.1357  -23.5967  209.5436 C   0  0  0  0  0  0  0  0  0  0  0  0
  583.5471  -24.8577  209.0160 O   0  0  0  0  0  0  0  0  0  0  0  0
  584.2686  -24.7518  207.7781 C   0  0  0  0  0  0  0  0  0  0  0  0
  584.7280  -26.0536  207.2254 C   0  0  0  0  0  0  0  0  0  0  0  0
  583.9885  -27.1736  206.9108 C   0  0  0  0  0  0  0  0  0  0  0  0
  584.9309  -28.1054  206.5919 N   0  0  0  0  0  0  0  0  0  0  0  0
  584.7372  -29.5309  206.4030 C   0  0  0  0  0  0  0  0  0  0  0  0
  585.2860  -29.9498  205.0571 C   0  0  0  0  0  0  0  0  0  0  0  0
  585.1791  -31.2808  204.6250 C   0  0  0  0  0  0  0  0  0  0  0  0
  585.5995  -31.6564  203.3405 C   0  0  0  0  0  0  0  0  0  0  0  0
  585.4820  -33.0924  202.8838 C   0  0  0  0  0  0  0  0  0  0  0  0
  586.3237  -33.3600  201.7319 N   0  0  0  0  0  0  0  0  0  0  0  0
  586.0106  -34.0646  200.6104 C   0  0  0  0  0  0  0  0  0  0  0  0
  587.1521  -33.9958  199.8423 C   0  0  0  0  0  0  0  0  0  0  0  0
  587.4253  -34.5571  198.4916 C   0  0  0  0  0  0  0  0  0  0  0  0
  586.4084  -35.4502  198.0166 O   0  0  0  0  0  0  0  0  0  0  0  0
  586.6832  -36.0238  196.7316 C   0  0  0  0  0  0  0  0  0  0  0  0
  587.5729  -37.2685  196.8109 C   0  0  0  0  0  0  0  0  0  0  0  0
  587.6768  -37.8674  195.5164 O   0  0  0  0  0  0  0  0  0  0  0  0
  588.4023  -39.0927  195.5395 C   0  0  0  0  0  0  0  0  0  0  0  0
  588.3891  -39.7362  194.1527 C   0  0  0  0  0  0  0  0  0  0  0  0
  589.0629  -41.1205  194.1108 C   0  0  2  0  0  0  0  0  0  0  0  0
  588.0987  -42.1346  194.4146 O   0  0  0  0  0  0  0  0  0  0  0  0
  588.6352  -43.4439  194.3525 C   0  0  0  0  0  0  0  0  0  0  0  0
  587.5999  -44.3758  194.6292 O   0  0  0  0  0  0  0  0  0  0  0  0
  589.7535  -43.6377  195.3846 C   0  0  1  0  0  0  0  0  0  0  0  0
  590.3289  -44.9513  195.3023 O   0  0  0  0  0  0  0  0  0  0  0  0
  590.8390  -42.5959  195.1341 C   0  0  2  0  0  0  0  0  0  0  0  0
  591.8459  -42.6612  196.1578 O   0  0  0  0  0  0  0  0  0  0  0  0
  590.2357  -41.1878  195.1128 C   0  0  1  0  0  0  0  0  0  0  0  0
  591.2615  -40.2454  194.7841 O   0  0  0  0  0  0  0  0  0  0  0  0
  588.1133  -33.2970  200.5355 N   0  0  0  0  0  0  0  0  0  0  0  0
  587.5990  -32.9240  201.6976 N   0  0  0  0  0  0  0  0  0  0  0  0
  586.1144  -30.6748  202.4780 C   0  0  0  0  0  0  0  0  0  0  0  0
  586.2077  -29.3367  202.8833 C   0  0  0  0  0  0  0  0  0  0  0  0
  586.7128  -28.2753  201.9389 C   0  0  0  0  0  0  0  0  0  0  0  0
  585.7208  -27.2413  201.7322 N   0  0  0  0  0  0  0  0  0  0  0  0
  585.9190  -25.9864  201.2406 C   0  0  0  0  0  0  0  0  0  0  0  0
  584.6440  -25.4861  201.0778 C   0  0  0  0  0  0  0  0  0  0  0  0
  584.2120  -24.1939  200.4806 C   0  0  0  0  0  0  0  0  0  0  0  0
  585.2658  -23.4713  199.8222 O   0  0  0  0  0  0  0  0  0  0  0  0
  584.8093  -22.2718  199.1954 C   0  0  0  0  0  0  0  0  0  0  0  0
  583.8207  -21.5524  200.1064 C   0  0  0  0  0  0  0  0  0  0  0  0
  583.1292  -20.5079  199.4200 O   0  0  0  0  0  0  0  0  0  0  0  0
  582.1421  -19.8199  200.1873 C   0  0  0  0  0  0  0  0  0  0  0  0
  581.5331  -18.6122  199.4688 C   0  0  0  0  0  0  0  0  0  0  0  0
  580.5440  -17.8212  200.3389 C   0  0  2  0  0  0  0  0  0  0  0  0
  579.9194  -16.8048  199.5418 O   0  0  0  0  0  0  0  0  0  0  0  0
  580.0950  -15.4643  199.9675 C   0  0  0  0  0  0  0  0  0  0  0  0
  581.4291  -15.0616  199.7110 O   0  0  0  0  0  0  0  0  0  0  0  0
  579.7579  -15.2252  201.4589 C   0  0  1  0  0  0  0  0  0  0  0  0
  578.3463  -15.0317  201.6757 O   0  0  0  0  0  0  0  0  0  0  0  0
  580.1943  -16.4022  202.3379 C   0  0  2  0  0  0  0  0  0  0  0  0
  580.7900  -15.9474  203.5634 O   0  0  0  0  0  0  0  0  0  0  0  0
  581.2048  -17.2965  201.6255 C   0  0  1  0  0  0  0  0  0  0  0  0
  581.5786  -18.3640  202.5123 O   0  0  0  0  0  0  0  0  0  0  0  0
  583.7403  -26.4117  201.5376 N   0  0  0  0  0  0  0  0  0  0  0  0
  584.4116  -27.4842  201.9405 N   0  0  0  0  0  0  0  0  0  0  0  0
  585.8181  -28.9904  204.1836 C   0  0  0  0  0  0  0  0  0  0  0  0
  586.1642  -27.5697  206.5741 N   0  0  0  0  0  0  0  0  0  0  0  0
  586.0538  -26.3113  206.9801 N   0  0  0  0  0  0  0  0  0  0  0  0
  583.4620  -21.9849  216.2422 C   0  0  2  0  0  0  0  0  0  0  0  0
  584.6796  -22.7358  216.2793 O   0  0  0  0  0  0  0  0  0  0  0  0
  582.9123  -21.9094  217.6718 C   0  0  1  0  0  0  0  0  0  0  0  0
  583.8273  -21.1551  218.4837 O   0  0  0  0  0  0  0  0  0  0  0  0
  581.5310  -21.2673  217.6953 C   0  0  2  0  0  0  0  0  0  0  0  0
  581.0201  -21.3051  219.0349 O   0  0  0  0  0  0  0  0  0  0  0  0
  1  2  1  0
  2  3  1  0
  3  4  1  0
  4  5  1  6
  5  6  1  0
  6  7  1  0
  7  8  1  0
  8  9  1  0
  9 10  1  0
 10 11  1  0
 11 12  1  0
 12 13  2  0
 13 14  1  0
 14 15  1  0
 15 16  1  0
 16 17  2  0
 17 18  1  0
 18 19  1  0
 19 20  1  0
 20 21  1  0
 21 22  2  0
 22 23  1  0
 23 24  1  0
 24 25  1  0
 25 26  1  0
 26 27  1  0
 27 28  1  0
 28 29  1  0
 30 29  1  1
 30 31  1  0
 31 32  1  0
 32 33  1  0
 32 34  1  0
 34 35  1  6
 34 36  1  0
 36 37  1  1
 36 38  1  0
 38 39  1  6
 22 40  1  0
 40 41  2  0
 18 42  2  0
 42 43  1  0
 43 44  1  0
 44 45  1  0
 45 46  1  0
 46 47  2  0
 47 48  1  0
 48 49  1  0
 49 50  1  0
 50 51  1  0
 51 52  1  0
 52 53  1  0
 53 54  1  0
 55 54  1  6
 55 56  1  0
 56 57  1  0
 57 58  1  0
 57 59  1  0
 59 60  1  6
 59 61  1  0
 61 62  1  1
 61 63  1  0
 63 64  1  1
 47 65  1  0
 65 66  2  0
 43 67  2  0
 14 68  1  0
 68 69  2  0
  4 70  1  0
 70 71  1  1
 70 72  1  0
 72 73  1  1
 72 74  1  0
 74 75  1  1
 74  2  1  0
 69 12  1  0
 67 16  1  0
 41 20  1  0
 66 45  1  0
 38 30  1  0
 63 55  1  0
M  END
$$$$
