
     RDKit          3D

 75 81  0  0  0  0  0  0  0  0999 V2000
  590.6460  -38.8321  193.4468 O   0  0  0  0  0  0  0  0  0  0  0  0
  589.9482  -39.3241  194.5893 C   0  0  0  0  0  0  0  0  0  0  0  0
  588.9681  -38.3669  194.9534 O   0  0  0  0  0  0  0  0  0  0  0  0
  588.2366  -38.7409  196.1400 C   0  0  1  0  0  0  0  0  0  0  0  0
  587.2644  -37.5835  196.4195 C   0  0  0  0  0  0  0  0  0  0  0  0
  587.9189  -36.2480  196.7465 C   0  0  0  0  0  0  0  0  0  0  0  0
  586.8845  -35.2817  196.9631 O   0  0  0  0  0  0  0  0  0  0  0  0
  586.7991  -34.9122  198.3414 C   0  0  0  0  0  0  0  0  0  0  0  0
  586.2599  -33.4908  198.4544 C   0  0  0  0  0  0  0  0  0  0  0  0
  586.1472  -33.1304  199.8310 O   0  0  0  0  0  0  0  0  0  0  0  0
  587.2007  -32.2648  200.2836 C   0  0  0  0  0  0  0  0  0  0  0  0
  587.2236  -32.0477  201.7546 C   0  0  0  0  0  0  0  0  0  0  0  0
  586.2444  -32.3140  202.6875 C   0  0  0  0  0  0  0  0  0  0  0  0
  586.7419  -31.7833  203.8403 N   0  0  0  0  0  0  0  0  0  0  0  0
  586.0395  -31.5711  205.0920 C   0  0  0  0  0  0  0  0  0  0  0  0
  585.6552  -30.1141  205.2245 C   0  0  0  0  0  0  0  0  0  0  0  0
  586.0183  -29.1868  204.2355 C   0  0  0  0  0  0  0  0  0  0  0  0
  585.5845  -27.8546  204.3040 C   0  0  0  0  0  0  0  0  0  0  0  0
  585.9814  -26.8623  203.2353 C   0  0  0  0  0  0  0  0  0  0  0  0
  584.8630  -26.0277  202.8356 N   0  0  0  0  0  0  0  0  0  0  0  0
  584.6663  -24.7071  203.0993 C   0  0  0  0  0  0  0  0  0  0  0  0
  583.4702  -24.4169  202.4805 C   0  0  0  0  0  0  0  0  0  0  0  0
  582.7317  -23.1280  202.3944 C   0  0  0  0  0  0  0  0  0  0  0  0
  582.3646  -22.7563  201.0586 O   0  0  0  0  0  0  0  0  0  0  0  0
  582.4594  -21.3506  200.7924 C   0  0  0  0  0  0  0  0  0  0  0  0
  583.9026  -20.8760  200.5943 C   0  0  0  0  0  0  0  0  0  0  0  0
  583.9214  -19.4568  200.4195 O   0  0  0  0  0  0  0  0  0  0  0  0
  582.8575  -18.9954  199.5928 C   0  0  0  0  0  0  0  0  0  0  0  0
  582.1423  -17.8227  200.2642 C   0  0  0  0  0  0  0  0  0  0  0  0
  581.0110  -17.2216  199.4092 C   0  0  2  0  0  0  0  0  0  0  0  0
  581.4953  -16.9561  198.0880 O   0  0  0  0  0  0  0  0  0  0  0  0
  580.4965  -16.4404  197.2264 C   0  0  0  0  0  0  0  0  0  0  0  0
  581.0600  -16.2474  195.9372 O   0  0  0  0  0  0  0  0  0  0  0  0
  579.9650  -15.0932  197.7324 C   0  0  1  0  0  0  0  0  0  0  0  0
  578.9244  -14.5817  196.8844 O   0  0  0  0  0  0  0  0  0  0  0  0
  579.4180  -15.2799  199.1439 C   0  0  2  0  0  0  0  0  0  0  0  0
  579.0255  -14.0153  199.7034 O   0  0  0  0  0  0  0  0  0  0  0  0
  580.4753  -15.9219  200.0479 C   0  0  1  0  0  0  0  0  0  0  0  0
  579.9012  -16.1678  201.3356 O   0  0  0  0  0  0  0  0  0  0  0  0
  582.9747  -25.5659  201.9088 N   0  0  0  0  0  0  0  0  0  0  0  0
  583.8298  -26.5495  202.1443 N   0  0  0  0  0  0  0  0  0  0  0  0
  584.7604  -27.4605  205.3708 C   0  0  0  0  0  0  0  0  0  0  0  0
  584.3686  -28.3774  206.3554 C   0  0  0  0  0  0  0  0  0  0  0  0
  583.4426  -27.9656  207.4720 C   0  0  0  0  0  0  0  0  0  0  0  0
  583.0289  -26.5856  207.3291 N   0  0  0  0  0  0  0  0  0  0  0  0
  583.7216  -25.4693  207.6893 C   0  0  0  0  0  0  0  0  0  0  0  0
  582.9730  -24.4311  207.1752 C   0  0  0  0  0  0  0  0  0  0  0  0
  583.2737  -22.9743  207.1612 C   0  0  0  0  0  0  0  0  0  0  0  0
  584.4186  -22.6048  207.9477 O   0  0  0  0  0  0  0  0  0  0  0  0
  584.6758  -21.2000  207.9283 C   0  0  0  0  0  0  0  0  0  0  0  0
  583.9922  -20.5292  209.1147 C   0  0  0  0  0  0  0  0  0  0  0  0
  584.2590  -19.1267  209.1580 O   0  0  0  0  0  0  0  0  0  0  0  0
  583.3514  -18.3078  208.4216 C   0  0  0  0  0  0  0  0  0  0  0  0
  582.3398  -17.5645  209.2989 C   0  0  0  0  0  0  0  0  0  0  0  0
  581.3765  -16.6750  208.4975 C   0  0  2  0  0  0  0  0  0  0  0  0
  582.1127  -15.5999  207.8971 O   0  0  0  0  0  0  0  0  0  0  0  0
  581.7245  -14.2846  208.2551 C   0  0  0  0  0  0  0  0  0  0  0  0
  582.1295  -14.0220  209.5873 O   0  0  0  0  0  0  0  0  0  0  0  0
  580.2083  -14.0112  208.1096 C   0  0  1  0  0  0  0  0  0  0  0  0
  579.8413  -13.6728  206.7577 O   0  0  0  0  0  0  0  0  0  0  0  0
  579.3682  -15.2266  208.5166 C   0  0  2  0  0  0  0  0  0  0  0  0
  578.2202  -14.8353  209.2864 O   0  0  0  0  0  0  0  0  0  0  0  0
  580.1758  -16.2209  209.3457 C   0  0  1  0  0  0  0  0  0  0  0  0
  579.3224  -17.3209  209.7027 O   0  0  0  0  0  0  0  0  0  0  0  0
  581.8379  -24.9439  206.5976 N   0  0  0  0  0  0  0  0  0  0  0  0
  581.8800  -26.2672  206.7005 N   0  0  0  0  0  0  0  0  0  0  0  0
  584.8447  -29.6932  206.2886 C   0  0  0  0  0  0  0  0  0  0  0  0
  588.0002  -31.3394  203.6730 N   0  0  0  0  0  0  0  0  0  0  0  0
  588.3010  -31.4803  202.3884 N   0  0  0  0  0  0  0  0  0  0  0  0
  587.5335  -40.1017  195.9455 C   0  0  2  0  0  0  0  0  0  0  0  0
  586.9620  -40.5743  197.1694 O   0  0  0  0  0  0  0  0  0  0  0  0
  588.5212  -41.1635  195.4469 C   0  0  1  0  0  0  0  0  0  0  0  0
  587.7941  -42.3586  195.1179 O   0  0  0  0  0  0  0  0  0  0  0  0
  589.2967  -40.6650  194.2340 C   0  0  2  0  0  0  0  0  0  0  0  0
  590.2704  -41.6507  193.8637 O   0  0  0  0  0  0  0  0  0  0  0  0
  1  2  1  0
  2  3  1  0
  3  4  1  0
  4  5  1  6
  5  6  1  0
  6  7  1  0
  7  8  1  0
  8  9  1  0
  9 10  1  0
 10 11  1  0
 11 12  1  0
 12 13  2  0
 13 14  1  0
 14 15  1  0
 15 16  1  0
 16 17  2  0
 17 18  1  0
 18 19  1  0
 19 20  1  0
 20 21  1  0
 21 22  2  0
 22 23  1  0
 23 24  1  0
 24 25  1  0
 25 26  1  0
 26 27  1  0
 27 28  1  0
 28 29  1  0
 30 29  1  1
 30 31  1  0
 31 32  1  0
 32 33  1  0
 32 34  1  0
 34 35  1  6
 34 36  1  0
 36 37  1  1
 36 38  1  0
 38 39  1  1
 22 40  1  0
 40 41  2  0
 18 42  2  0
 42 43  1  0
 43 44  1  0
 44 45  1  0
 45 46  1  0
 46 47  2  0
 47 48  1  0
 48 49  1  0
 49 50  1  0
 50 51  1  0
 51 52  1  0
 52 53  1  0
 53 54  1  0
 55 54  1  1
 55 56  1  0
 56 57  1  0
 57 58  1  0
 57 59  1  0
 59 60  1  6
 59 61  1  0
 61 62  1  1
 61 63  1  0
 63 64  1  6
 47 65  1  0
 65 66  2  0
 43 67  2  0
 14 68  1  0
 68 69  2  0
  4 70  1  0
 70 71  1  1
 70 72  1  0
 72 73  1  6
 72 74  1  0
 74 75  1  1
 74  2  1  0
 69 12  1  0
 67 16  1  0
 41 20  1  0
 66 45  1  0
 38 30  1  0
 63 55  1  0
M  END
$$$$
