
     RDKit          3D

 75 81  0  0  0  0  0  0  0  0999 V2000
  585.1720  -35.3016  202.6657 O   0  0  0  0  0  0  0  0  0  0  0  0
  585.7708  -35.3032  203.9602 C   0  0  0  0  0  0  0  0  0  0  0  0
  586.3320  -34.0217  204.1881 O   0  0  0  0  0  0  0  0  0  0  0  0
  587.0173  -33.9300  205.4550 C   0  0  1  0  0  0  0  0  0  0  0  0
  587.6027  -32.5099  205.5168 C   0  0  0  0  0  0  0  0  0  0  0  0
  586.8434  -31.5307  206.4020 C   0  0  0  0  0  0  0  0  0  0  0  0
  587.6296  -30.3410  206.5332 O   0  0  0  0  0  0  0  0  0  0  0  0
  586.9083  -29.1900  206.0879 C   0  0  0  0  0  0  0  0  0  0  0  0
  586.8279  -28.1711  207.2190 C   0  0  0  0  0  0  0  0  0  0  0  0
  586.1451  -27.0035  206.7630 O   0  0  0  0  0  0  0  0  0  0  0  0
  584.7144  -27.1326  206.7848 C   0  0  0  0  0  0  0  0  0  0  0  0
  583.9844  -25.9193  206.3303 C   0  0  0  0  0  0  0  0  0  0  0  0
  584.4874  -24.6909  205.9588 C   0  0  0  0  0  0  0  0  0  0  0  0
  583.3742  -23.9236  205.7855 N   0  0  0  0  0  0  0  0  0  0  0  0
  583.3095  -22.4842  205.6148 C   0  0  0  0  0  0  0  0  0  0  0  0
  583.2706  -22.1429  204.1416 C   0  0  0  0  0  0  0  0  0  0  0  0
  582.6770  -20.9502  203.7001 C   0  0  0  0  0  0  0  0  0  0  0  0
  582.7214  -20.5821  202.3473 C   0  0  0  0  0  0  0  0  0  0  0  0
  582.0783  -19.2966  201.8802 C   0  0  0  0  0  0  0  0  0  0  0  0
  582.0897  -19.1854  200.4330 N   0  0  0  0  0  0  0  0  0  0  0  0
  581.7711  -18.1023  199.6729 C   0  0  0  0  0  0  0  0  0  0  0  0
  581.9666  -18.5325  198.3788 C   0  0  0  0  0  0  0  0  0  0  0  0
  581.8030  -17.7959  197.0964 C   0  0  0  0  0  0  0  0  0  0  0  0
  581.3699  -16.4379  197.2571 O   0  0  0  0  0  0  0  0  0  0  0  0
  581.1633  -15.7369  196.0235 C   0  0  0  0  0  0  0  0  0  0  0  0
  580.6285  -14.3156  196.2263 C   0  0  0  0  0  0  0  0  0  0  0  0
  580.3640  -13.7163  194.9551 O   0  0  0  0  0  0  0  0  0  0  0  0
  579.8909  -12.3782  195.0713 C   0  0  0  0  0  0  0  0  0  0  0  0
  578.3790  -12.3352  194.8482 C   0  0  0  0  0  0  0  0  0  0  0  0
  577.7542  -10.9568  195.1341 C   0  0  2  0  0  0  0  0  0  0  0  0
  577.7826  -10.6981  196.5423 O   0  0  0  0  0  0  0  0  0  0  0  0
  577.2628   -9.4249  196.8810 C   0  0  0  0  0  0  0  0  0  0  0  0
  577.3690   -9.2469  198.2859 O   0  0  0  0  0  0  0  0  0  0  0  0
  575.7858   -9.3024  196.4848 C   0  0  1  0  0  0  0  0  0  0  0  0
  575.2614   -8.0004  196.7905 O   0  0  0  0  0  0  0  0  0  0  0  0
  575.6563   -9.5583  194.9868 C   0  0  2  0  0  0  0  0  0  0  0  0
  574.2729   -9.5779  194.5967 O   0  0  0  0  0  0  0  0  0  0  0  0
  576.3016  -10.8970  194.6141 C   0  0  1  0  0  0  0  0  0  0  0  0
  576.2455  -11.0627  193.1936 O   0  0  0  0  0  0  0  0  0  0  0  0
  582.3509  -19.8532  198.4023 N   0  0  0  0  0  0  0  0  0  0  0  0
  582.4099  -20.2466  199.6656 N   0  0  0  0  0  0  0  0  0  0  0  0
  583.3884  -21.4168  201.4356 C   0  0  0  0  0  0  0  0  0  0  0  0
  584.0067  -22.6000  201.8613 C   0  0  0  0  0  0  0  0  0  0  0  0
  584.7659  -23.4691  200.8907 C   0  0  0  0  0  0  0  0  0  0  0  0
  584.7020  -24.8637  201.2740 N   0  0  0  0  0  0  0  0  0  0  0  0
  585.6907  -25.7964  201.1826 C   0  0  0  0  0  0  0  0  0  0  0  0
  585.1767  -26.8938  201.8414 C   0  0  0  0  0  0  0  0  0  0  0  0
  585.8331  -28.1907  202.1582 C   0  0  0  0  0  0  0  0  0  0  0  0
  587.0620  -28.4145  201.4471 O   0  0  0  0  0  0  0  0  0  0  0  0
  586.9810  -29.5043  200.5274 C   0  0  0  0  0  0  0  0  0  0  0  0
  585.7181  -30.3165  200.7929 C   0  0  0  0  0  0  0  0  0  0  0  0
  585.4472  -31.2379  199.7356 O   0  0  0  0  0  0  0  0  0  0  0  0
  586.0051  -32.5409  199.9011 C   0  0  0  0  0  0  0  0  0  0  0  0
  585.5451  -33.5481  198.8430 C   0  0  0  0  0  0  0  0  0  0  0  0
  586.1360  -34.9526  199.0417 C   0  0  2  0  0  0  0  0  0  0  0  0
  586.2609  -35.5989  197.7669 O   0  0  0  0  0  0  0  0  0  0  0  0
  585.5535  -36.8155  197.5980 C   0  0  0  0  0  0  0  0  0  0  0  0
  584.1671  -36.5417  197.4955 O   0  0  0  0  0  0  0  0  0  0  0  0
  585.7970  -37.8500  198.7229 C   0  0  1  0  0  0  0  0  0  0  0  0
  587.0046  -38.6086  198.5156 O   0  0  0  0  0  0  0  0  0  0  0  0
  585.9120  -37.1814  200.0971 C   0  0  2  0  0  0  0  0  0  0  0  0
  585.2114  -37.9297  201.1034 O   0  0  0  0  0  0  0  0  0  0  0  0
  585.3486  -35.7634  200.0856 C   0  0  1  0  0  0  0  0  0  0  0  0
  585.4752  -35.2083  201.4053 O   0  0  0  0  0  0  0  0  0  0  0  0
  583.8915  -26.6150  202.2357 N   0  0  0  0  0  0  0  0  0  0  0  0
  583.6083  -25.3675  201.8794 N   0  0  0  0  0  0  0  0  0  0  0  0
  583.9171  -22.9679  203.2100 C   0  0  0  0  0  0  0  0  0  0  0  0
  582.2515  -24.6540  205.9048 N   0  0  0  0  0  0  0  0  0  0  0  0
  582.6142  -25.8805  206.2581 N   0  0  0  0  0  0  0  0  0  0  0  0
  586.0593  -34.2519  206.6221 C   0  0  2  0  0  0  0  0  0  0  0  0
  586.7631  -34.3491  207.8643 O   0  0  0  0  0  0  0  0  0  0  0  0
  585.3350  -35.5829  206.3865 C   0  0  1  0  0  0  0  0  0  0  0  0
  584.3354  -35.7561  207.4044 O   0  0  0  0  0  0  0  0  0  0  0  0
  584.6953  -35.6222  205.0045 C   0  0  2  0  0  0  0  0  0  0  0  0
  584.1140  -36.9164  204.7946 O   0  0  0  0  0  0  0  0  0  0  0  0
  1  2  1  0
  2  3  1  0
  3  4  1  0
  4  5  1  1
  5  6  1  0
  6  7  1  0
  7  8  1  0
  8  9  1  0
  9 10  1  0
 10 11  1  0
 11 12  1  0
 12 13  2  0
 13 14  1  0
 14 15  1  0
 15 16  1  0
 16 17  2  0
 17 18  1  0
 18 19  1  0
 19 20  1  0
 20 21  1  0
 21 22  2  0
 22 23  1  0
 23 24  1  0
 24 25  1  0
 25 26  1  0
 26 27  1  0
 27 28  1  0
 28 29  1  0
 30 29  1  1
 30 31  1  0
 31 32  1  0
 32 33  1  0
 32 34  1  0
 34 35  1  6
 34 36  1  0
 36 37  1  1
 36 38  1  0
 38 39  1  6
 22 40  1  0
 40 41  2  0
 18 42  2  0
 42 43  1  0
 43 44  1  0
 44 45  1  0
 45 46  1  0
 46 47  2  0
 47 48  1  0
 48 49  1  0
 49 50  1  0
 50 51  1  0
 51 52  1  0
 52 53  1  0
 53 54  1  0
 55 54  1  6
 55 56  1  0
 56 57  1  0
 57 58  1  0
 57 59  1  0
 59 60  1  6
 59 61  1  0
 61 62  1  1
 61 63  1  0
 63 64  1  1
 47 65  1  0
 65 66  2  0
 43 67  2  0
 14 68  1  0
 68 69  2  0
  4 70  1  0
 70 71  1  1
 70 72  1  0
 72 73  1  1
 72 74  1  0
 74 75  1  6
 74  2  1  0
 69 12  1  0
 67 16  1  0
 41 20  1  0
 66 45  1  0
 38 30  1  0
 63 55  1  0
M  END
$$$$
