
     RDKit          3D

 75 81  0  0  0  0  0  0  0  0999 V2000
  589.9515  -40.9342  197.2246 O   0  0  0  0  0  0  0  0  0  0  0  0
  589.3464  -40.2709  196.1163 C   0  0  0  0  0  0  0  0  0  0  0  0
  589.2333  -38.8942  196.4345 O   0  0  0  0  0  0  0  0  0  0  0  0
  588.5782  -38.1338  195.3973 C   0  0  1  0  0  0  0  0  0  0  0  0
  588.4931  -36.6910  195.9209 C   0  0  0  0  0  0  0  0  0  0  0  0
  587.6102  -36.4939  197.1458 C   0  0  0  0  0  0  0  0  0  0  0  0
  587.6435  -35.1082  197.5054 O   0  0  0  0  0  0  0  0  0  0  0  0
  587.1346  -34.9016  198.8252 C   0  0  0  0  0  0  0  0  0  0  0  0
  587.2742  -33.4305  199.1996 C   0  0  0  0  0  0  0  0  0  0  0  0
  586.7977  -33.2286  200.5300 O   0  0  0  0  0  0  0  0  0  0  0  0
  587.7047  -33.6992  201.5399 C   0  0  0  0  0  0  0  0  0  0  0  0
  587.2266  -33.4959  202.9333 C   0  0  0  0  0  0  0  0  0  0  0  0
  586.1991  -32.6995  203.3918 C   0  0  0  0  0  0  0  0  0  0  0  0
  586.3058  -32.7815  204.7482 N   0  0  0  0  0  0  0  0  0  0  0  0
  585.6285  -31.9672  205.7399 C   0  0  0  0  0  0  0  0  0  0  0  0
  585.8610  -30.5015  205.4465 C   0  0  0  0  0  0  0  0  0  0  0  0
  585.6990  -29.9989  204.1461 C   0  0  0  0  0  0  0  0  0  0  0  0
  585.8198  -28.6260  203.8850 C   0  0  0  0  0  0  0  0  0  0  0  0
  585.6451  -28.0935  202.4814 C   0  0  0  0  0  0  0  0  0  0  0  0
  585.4705  -26.6524  202.4717 N   0  0  0  0  0  0  0  0  0  0  0  0
  584.3247  -25.9482  202.2630 C   0  0  0  0  0  0  0  0  0  0  0  0
  584.7154  -24.6321  202.3770 C   0  0  0  0  0  0  0  0  0  0  0  0
  583.9075  -23.3871  202.2699 C   0  0  0  0  0  0  0  0  0  0  0  0
  584.5120  -22.2462  202.8945 O   0  0  0  0  0  0  0  0  0  0  0  0
  583.6844  -21.0754  202.9066 C   0  0  0  0  0  0  0  0  0  0  0  0
  582.2462  -21.3648  203.3477 C   0  0  0  0  0  0  0  0  0  0  0  0
  581.6763  -20.1888  203.9284 O   0  0  0  0  0  0  0  0  0  0  0  0
  581.5254  -19.1331  202.9845 C   0  0  0  0  0  0  0  0  0  0  0  0
  580.1489  -19.2132  202.3238 C   0  0  0  0  0  0  0  0  0  0  0  0
  579.8698  -18.0591  201.3428 C   0  0  2  0  0  0  0  0  0  0  0  0
  579.9864  -16.8067  202.0273 O   0  0  0  0  0  0  0  0  0  0  0  0
  579.7857  -15.6915  201.1775 C   0  0  0  0  0  0  0  0  0  0  0  0
  579.9590  -14.5027  201.9347 O   0  0  0  0  0  0  0  0  0  0  0  0
  578.3707  -15.6897  200.5849 C   0  0  1  0  0  0  0  0  0  0  0  0
  578.1716  -14.5823  199.6917 O   0  0  0  0  0  0  0  0  0  0  0  0
  578.1547  -16.9944  199.8251 C   0  0  2  0  0  0  0  0  0  0  0  0
  576.7975  -17.0884  199.3609 O   0  0  0  0  0  0  0  0  0  0  0  0
  578.4613  -18.1958  200.7252 C   0  0  1  0  0  0  0  0  0  0  0  0
  578.3393  -19.3974  199.9573 O   0  0  0  0  0  0  0  0  0  0  0  0
  586.0712  -24.5887  202.6063 N   0  0  0  0  0  0  0  0  0  0  0  0
  586.5256  -25.8321  202.6489 N   0  0  0  0  0  0  0  0  0  0  0  0
  586.0873  -27.7509  204.9504 C   0  0  0  0  0  0  0  0  0  0  0  0
  586.2297  -28.2312  206.2591 C   0  0  0  0  0  0  0  0  0  0  0  0
  586.4661  -27.2854  207.4094 C   0  0  0  0  0  0  0  0  0  0  0  0
  585.2162  -26.8022  207.9572 N   0  0  0  0  0  0  0  0  0  0  0  0
  585.0394  -26.0154  209.0551 C   0  0  0  0  0  0  0  0  0  0  0  0
  583.6964  -25.7023  209.0291 C   0  0  0  0  0  0  0  0  0  0  0  0
  582.9280  -24.7894  209.9175 C   0  0  0  0  0  0  0  0  0  0  0  0
  583.6583  -24.3444  211.0729 O   0  0  0  0  0  0  0  0  0  0  0  0
  582.9005  -23.4637  211.9036 C   0  0  0  0  0  0  0  0  0  0  0  0
  582.4052  -22.2754  211.0867 C   0  0  0  0  0  0  0  0  0  0  0  0
  581.6734  -21.3475  211.8890 O   0  0  0  0  0  0  0  0  0  0  0  0
  582.0860  -21.2582  213.2522 C   0  0  0  0  0  0  0  0  0  0  0  0
  581.5575  -20.0169  213.9770 C   0  0  0  0  0  0  0  0  0  0  0  0
  582.0664  -19.8924  215.4215 C   0  0  2  0  0  0  0  0  0  0  0  0
  581.4858  -20.9334  216.2199 O   0  0  0  0  0  0  0  0  0  0  0  0
  580.7052  -20.5241  217.3299 C   0  0  0  0  0  0  0  0  0  0  0  0
  579.4794  -19.9842  216.8678 O   0  0  0  0  0  0  0  0  0  0  0  0
  581.4078  -19.5010  218.2543 C   0  0  1  0  0  0  0  0  0  0  0  0
  582.2892  -20.1357  219.2015 O   0  0  0  0  0  0  0  0  0  0  0  0
  582.2466  -18.4954  217.4581 C   0  0  2  0  0  0  0  0  0  0  0  0
  582.0970  -17.1637  217.9754 O   0  0  0  0  0  0  0  0  0  0  0  0
  581.8566  -18.4753  215.9831 C   0  0  1  0  0  0  0  0  0  0  0  0
  582.6697  -17.5025  215.3064 O   0  0  0  0  0  0  0  0  0  0  0  0
  583.1062  -26.3590  207.9777 N   0  0  0  0  0  0  0  0  0  0  0  0
  584.0471  -27.0344  207.3280 N   0  0  0  0  0  0  0  0  0  0  0  0
  586.1435  -29.6100  206.4914 C   0  0  0  0  0  0  0  0  0  0  0  0
  587.2440  -33.6728  205.1135 N   0  0  0  0  0  0  0  0  0  0  0  0
  587.8302  -34.1058  204.0047 N   0  0  0  0  0  0  0  0  0  0  0  0
  589.3398  -38.2593  194.0602 C   0  0  2  0  0  0  0  0  0  0  0  0
  588.6056  -37.6687  192.9832 O   0  0  0  0  0  0  0  0  0  0  0  0
  589.5906  -39.7304  193.7073 C   0  0  1  0  0  0  0  0  0  0  0  0
  590.4451  -39.7938  192.5536 O   0  0  0  0  0  0  0  0  0  0  0  0
  590.2235  -40.4747  194.8762 C   0  0  2  0  0  0  0  0  0  0  0  0
  590.3509  -41.8616  194.5339 O   0  0  0  0  0  0  0  0  0  0  0  0
  1  2  1  0
  2  3  1  0
  3  4  1  0
  4  5  1  1
  5  6  1  0
  6  7  1  0
  7  8  1  0
  8  9  1  0
  9 10  1  0
 10 11  1  0
 11 12  1  0
 12 13  2  0
 13 14  1  0
 14 15  1  0
 15 16  1  0
 16 17  2  0
 17 18  1  0
 18 19  1  0
 19 20  1  0
 20 21  1  0
 21 22  2  0
 22 23  1  0
 23 24  1  0
 24 25  1  0
 25 26  1  0
 26 27  1  0
 27 28  1  0
 28 29  1  0
 30 29  1  1
 30 31  1  0
 31 32  1  0
 32 33  1  0
 32 34  1  0
 34 35  1  6
 34 36  1  0
 36 37  1  1
 36 38  1  0
 38 39  1  6
 22 40  1  0
 40 41  2  0
 18 42  2  0
 42 43  1  0
 43 44  1  0
 44 45  1  0
 45 46  1  0
 46 47  2  0
 47 48  1  0
 48 49  1  0
 49 50  1  0
 50 51  1  0
 51 52  1  0
 52 53  1  0
 53 54  1  0
 55 54  1  6
 55 56  1  0
 56 57  1  0
 57 58  1  0
 57 59  1  0
 59 60  1  1
 59 61  1  0
 61 62  1  1
 61 63  1  0
 63 64  1  6
 47 65  1  0
 65 66  2  0
 43 67  2  0
 14 68  1  0
 68 69  2  0
  4 70  1  0
 70 71  1  6
 70 72  1  0
 72 73  1  6
 72 74  1  0
 74 75  1  6
 74  2  1  0
 69 12  1  0
 67 16  1  0
 41 20  1  0
 66 45  1  0
 38 30  1  0
 63 55  1  0
M  END
$$$$
