
     RDKit          3D

 75 81  0  0  0  0  0  0  0  0999 V2000
  579.0621  -16.4842  191.7653 O   0  0  0  0  0  0  0  0  0  0  0  0
  578.6538  -15.7241  192.9011 C   0  0  0  0  0  0  0  0  0  0  0  0
  579.5300  -16.0278  193.9731 O   0  0  0  0  0  0  0  0  0  0  0  0
  579.1708  -15.3510  195.1962 C   0  0  1  0  0  0  0  0  0  0  0  0
  580.1793  -15.8269  196.2543 C   0  0  0  0  0  0  0  0  0  0  0  0
  579.5874  -16.6368  197.4000 C   0  0  0  0  0  0  0  0  0  0  0  0
  580.6450  -16.9756  198.3041 O   0  0  0  0  0  0  0  0  0  0  0  0
  580.1496  -17.6904  199.4386 C   0  0  0  0  0  0  0  0  0  0  0  0
  581.3005  -17.9933  200.3911 C   0  0  0  0  0  0  0  0  0  0  0  0
  580.8099  -18.7195  201.5179 O   0  0  0  0  0  0  0  0  0  0  0  0
  581.0040  -20.1391  201.4121 C   0  0  0  0  0  0  0  0  0  0  0  0
  581.7908  -20.7330  202.5254 C   0  0  0  0  0  0  0  0  0  0  0  0
  582.3062  -20.1212  203.6480 C   0  0  0  0  0  0  0  0  0  0  0  0
  583.0533  -21.0983  204.2356 N   0  0  0  0  0  0  0  0  0  0  0  0
  584.0031  -20.9526  205.3227 C   0  0  0  0  0  0  0  0  0  0  0  0
  583.3823  -21.4351  206.6150 C   0  0  0  0  0  0  0  0  0  0  0  0
  583.2236  -20.5606  207.7013 C   0  0  0  0  0  0  0  0  0  0  0  0
  582.5633  -20.9744  208.8677 C   0  0  0  0  0  0  0  0  0  0  0  0
  582.3979  -20.0266  210.0333 C   0  0  0  0  0  0  0  0  0  0  0  0
  582.1912  -20.7401  211.2804 N   0  0  0  0  0  0  0  0  0  0  0  0
  582.4874  -20.3257  212.5424 C   0  0  0  0  0  0  0  0  0  0  0  0
  582.0759  -21.3690  213.3425 C   0  0  0  0  0  0  0  0  0  0  0  0
  582.1168  -21.5055  214.8236 C   0  0  0  0  0  0  0  0  0  0  0  0
  581.3997  -20.4783  215.5221 O   0  0  0  0  0  0  0  0  0  0  0  0
  582.1745  -19.7908  216.5136 C   0  0  0  0  0  0  0  0  0  0  0  0
  581.9926  -20.3689  217.9207 C   0  0  0  0  0  0  0  0  0  0  0  0
  582.7100  -19.5692  218.8646 O   0  0  0  0  0  0  0  0  0  0  0  0
  582.5793  -20.0514  220.1982 C   0  0  0  0  0  0  0  0  0  0  0  0
  583.4400  -19.2148  221.1451 C   0  0  0  0  0  0  0  0  0  0  0  0
  583.4165  -19.7154  222.6014 C   0  0  2  0  0  0  0  0  0  0  0  0
  582.0621  -19.8067  223.0573 O   0  0  0  0  0  0  0  0  0  0  0  0
  581.9562  -20.3039  224.3793 C   0  0  0  0  0  0  0  0  0  0  0  0
  580.5817  -20.3942  224.7249 O   0  0  0  0  0  0  0  0  0  0  0  0
  582.6505  -19.3736  225.3821 C   0  0  1  0  0  0  0  0  0  0  0  0
  582.5804  -19.8902  226.7207 O   0  0  0  0  0  0  0  0  0  0  0  0
  584.1131  -19.2195  224.9779 C   0  0  2  0  0  0  0  0  0  0  0  0
  584.7693  -18.2554  225.8182 O   0  0  0  0  0  0  0  0  0  0  0  0
  584.2208  -18.7681  223.5177 C   0  0  1  0  0  0  0  0  0  0  0  0
  585.6016  -18.7232  223.1438 O   0  0  0  0  0  0  0  0  0  0  0  0
  581.5908  -22.3780  212.5432 N   0  0  0  0  0  0  0  0  0  0  0  0
  581.6788  -21.9872  211.2808 N   0  0  0  0  0  0  0  0  0  0  0  0
  582.0417  -22.2770  208.9296 C   0  0  0  0  0  0  0  0  0  0  0  0
  582.1702  -23.1568  207.8467 C   0  0  0  0  0  0  0  0  0  0  0  0
  581.5654  -24.5373  207.8949 C   0  0  0  0  0  0  0  0  0  0  0  0
  582.2581  -25.4452  207.0050 N   0  0  0  0  0  0  0  0  0  0  0  0
  583.2551  -26.3181  207.3203 C   0  0  0  0  0  0  0  0  0  0  0  0
  583.4277  -27.0583  206.1693 C   0  0  0  0  0  0  0  0  0  0  0  0
  584.3092  -28.2329  205.9320 C   0  0  0  0  0  0  0  0  0  0  0  0
  585.1183  -28.5962  207.0632 O   0  0  0  0  0  0  0  0  0  0  0  0
  585.4526  -29.9847  207.0838 C   0  0  0  0  0  0  0  0  0  0  0  0
  586.7736  -30.2128  206.3573 C   0  0  0  0  0  0  0  0  0  0  0  0
  586.9327  -31.5755  205.9599 O   0  0  0  0  0  0  0  0  0  0  0  0
  586.5593  -31.8683  204.6140 C   0  0  0  0  0  0  0  0  0  0  0  0
  586.8427  -33.3141  204.1956 C   0  0  0  0  0  0  0  0  0  0  0  0
  586.4489  -33.6153  202.7412 C   0  0  2  0  0  0  0  0  0  0  0  0
  586.1682  -35.0159  202.6065 O   0  0  0  0  0  0  0  0  0  0  0  0
  586.9592  -35.7372  201.6775 C   0  0  0  0  0  0  0  0  0  0  0  0
  588.2682  -35.8929  202.1971 O   0  0  0  0  0  0  0  0  0  0  0  0
  587.0311  -35.0918  200.2728 C   0  0  1  0  0  0  0  0  0  0  0  0
  585.8932  -35.4317  199.4564 O   0  0  0  0  0  0  0  0  0  0  0  0
  587.0925  -33.5625  200.3506 C   0  0  2  0  0  0  0  0  0  0  0  0
  588.0366  -33.0281  199.4089 O   0  0  0  0  0  0  0  0  0  0  0  0
  587.4913  -33.0821  201.7429 C   0  0  1  0  0  0  0  0  0  0  0  0
  587.5437  -31.6458  201.7355 O   0  0  0  0  0  0  0  0  0  0  0  0
  582.5953  -26.5664  205.1945 N   0  0  0  0  0  0  0  0  0  0  0  0
  581.8841  -25.5739  205.7165 N   0  0  0  0  0  0  0  0  0  0  0  0
  582.8669  -22.7359  206.7065 C   0  0  0  0  0  0  0  0  0  0  0  0
  582.9062  -22.2757  203.6028 N   0  0  0  0  0  0  0  0  0  0  0  0
  582.1454  -22.0590  202.5376 N   0  0  0  0  0  0  0  0  0  0  0  0
  579.1657  -13.8201  194.9956 C   0  0  2  0  0  0  0  0  0  0  0  0
  578.6323  -13.1450  196.1391 O   0  0  0  0  0  0  0  0  0  0  0  0
  578.3168  -13.4287  193.7800 C   0  0  1  0  0  0  0  0  0  0  0  0
  578.4797  -12.0227  193.5310 O   0  0  0  0  0  0  0  0  0  0  0  0
  578.7162  -14.2337  192.5498 C   0  0  2  0  0  0  0  0  0  0  0  0
  577.8354  -13.9024  191.4676 O   0  0  0  0  0  0  0  0  0  0  0  0
  1  2  1  0
  2  3  1  0
  3  4  1  0
  4  5  1  1
  5  6  1  0
  6  7  1  0
  7  8  1  0
  8  9  1  0
  9 10  1  0
 10 11  1  0
 11 12  1  0
 12 13  2  0
 13 14  1  0
 14 15  1  0
 15 16  1  0
 16 17  2  0
 17 18  1  0
 18 19  1  0
 19 20  1  0
 20 21  1  0
 21 22  2  0
 22 23  1  0
 23 24  1  0
 24 25  1  0
 25 26  1  0
 26 27  1  0
 27 28  1  0
 28 29  1  0
 30 29  1  6
 30 31  1  0
 31 32  1  0
 32 33  1  0
 32 34  1  0
 34 35  1  1
 34 36  1  0
 36 37  1  1
 36 38  1  0
 38 39  1  6
 22 40  1  0
 40 41  2  0
 18 42  2  0
 42 43  1  0
 43 44  1  0
 44 45  1  0
 45 46  1  0
 46 47  2  0
 47 48  1  0
 48 49  1  0
 49 50  1  0
 50 51  1  0
 51 52  1  0
 52 53  1  0
 53 54  1  0
 55 54  1  1
 55 56  1  0
 56 57  1  0
 57 58  1  0
 57 59  1  0
 59 60  1  6
 59 61  1  0
 61 62  1  6
 61 63  1  0
 63 64  1  6
 47 65  1  0
 65 66  2  0
 43 67  2  0
 14 68  1  0
 68 69  2  0
  4 70  1  0
 70 71  1  1
 70 72  1  0
 72 73  1  6
 72 74  1  0
 74 75  1  6
 74  2  1  0
 69 12  1  0
 67 16  1  0
 41 20  1  0
 66 45  1  0
 38 30  1  0
 63 55  1  0
M  END
$$$$
