
     RDKit          3D

 12 12  0  0  0  0  0  0  0  0999 V2000
  586.6785  -35.1844  203.5715 O   0  0  0  0  0  0  0  0  0  0  0  0
  587.7085  -34.3617  203.9576 C   0  0  0  0  0  0  0  0  0  0  0  0
  587.2115  -33.2974  204.9043 C   0  0  1  0  0  0  0  0  0  0  0  0
  586.1132  -32.6322  204.4082 O   0  0  0  0  0  0  0  0  0  0  0  0
  585.9081  -31.4665  205.0929 C   0  0  0  0  0  0  0  0  0  0  0  0
  586.8499  -30.5099  204.6651 O   0  0  0  0  0  0  0  0  0  0  0  0
  585.8817  -31.5653  206.5657 C   0  0  2  0  0  0  0  0  0  0  0  0
  586.4571  -30.3836  207.0882 O   0  0  0  0  0  0  0  0  0  0  0  0
  586.5869  -32.7142  207.1707 C   0  0  1  0  0  0  0  0  0  0  0  0
  585.9429  -33.2016  208.3099 O   0  0  0  0  0  0  0  0  0  0  0  0
  586.7966  -33.8827  206.2398 C   0  0  2  0  0  0  0  0  0  0  0  0
  587.7368  -34.7606  206.7485 O   0  0  0  0  0  0  0  0  0  0  0  0
  1  2  1  0
  3  2  1  6
  3  4  1  0
  4  5  1  0
  5  6  1  0
  5  7  1  0
  7  8  1  1
  7  9  1  0
  9 10  1  1
  9 11  1  0
 11 12  1  1
 11  3  1  0
M  END
$$$$
