@<TRIPOS>MOLECULE
1arm_peg24_glc.pdb
 309 309 0 0 0
SMALL
GASTEIGER

@<TRIPOS>ATOM
      1  N1         2.6280   -1.6160   -1.3420 N.3     1  UNL1       -0.3192
      2  C1         1.6380   -1.9150   -2.3620 C.3     1  UNL1        0.0867
      3  C2         0.3810   -1.0800   -2.1180 C.3     1  UNL1        0.0665
      4  O1        -0.1330   -1.3150   -0.8420 O.3     1  UNL1       -0.3930
      5  C3         2.2200   -1.5850   -3.7320 C.3     1  UNL1        0.0665
      6  O2         2.5430   -0.2300   -3.8250 O.3     1  UNL1       -0.3930
      7  C4         1.3090   -3.4060   -2.3010 C.3     1  UNL1        0.0701
      8  O3         0.3780   -3.7580   -3.2810 O.3     1  UNL1       -0.3755
      9  C5        -0.6760   -4.3390   -2.5790 C.3     1  UNL1        0.0712
     10  C6        -1.8330   -4.5810   -3.5240 C.3     1  UNL1        0.0737
     11  O4        -2.9430   -5.0190   -2.8040 O.3     1  UNL1       -0.3518
     12  C7        -4.0300   -4.4050   -3.4280 C.3     1  UNL1        0.1483
     13  O5        -4.5670   -3.4310   -2.5830 O.3     1  UNL1       -0.3518
     14  C8        -4.4170   -2.2310   -3.2820 C.3     1  UNL1        0.0738
     15  C9        -3.5470   -1.2740   -2.4860 C.3     1  UNL1        0.0738
     16  O6        -4.1860   -0.9320   -1.2950 O.3     1  UNL1       -0.3518
     17  C10       -3.1490   -0.7840   -0.3750 C.3     1  UNL1        0.1483
     18  O7        -3.6790   -0.6330    0.9040 O.3     1  UNL1       -0.3518
     19  C11       -2.5990   -0.8510    1.7570 C.3     1  UNL1        0.0738
     20  C12       -3.0900   -1.4940    3.0370 C.3     1  UNL1        0.0738
     21  O8        -1.9980   -1.8490    3.8260 O.3     1  UNL1       -0.3518
     22  C13       -2.2740   -3.1510    4.2410 C.3     1  UNL1        0.1483
     23  O9        -1.0970   -3.7610    4.6740 O.3     1  UNL1       -0.3518
     24  C14       -1.2690   -5.1090    4.3660 C.3     1  UNL1        0.0738
     25  C15        0.0830   -5.7870    4.2790 C.3     1  UNL1        0.0738
     26  O10       -0.0830   -7.1030    3.8470 O.3     1  UNL1       -0.3518
     27  C16        0.9960   -7.3340    2.9940 C.3     1  UNL1        0.1483
     28  O11        0.5300   -7.8210    1.7730 O.3     1  UNL1       -0.3518
     29  C17        1.5150   -7.4640    0.8520 C.3     1  UNL1        0.0738
     30  C18        0.8910   -7.3040   -0.5200 C.3     1  UNL1        0.0738
     31  O12        1.8590   -6.8690   -1.4240 O.3     1  UNL1       -0.3518
     32  C19        1.4490   -7.3890   -2.6520 C.3     1  UNL1        0.1483
     33  O13        1.7470   -6.4800   -3.6660 O.3     1  UNL1       -0.3518
     34  C20        1.4120   -7.1440   -4.8470 C.3     1  UNL1        0.0738
     35  C21        0.4320   -6.3090   -5.6540 C.3     1  UNL1        0.0738
     36  O14        1.0460   -5.1310   -6.0800 O.3     1  UNL1       -0.3518
     37  C22       -0.0020   -4.3450   -6.5600 C.3     1  UNL1        0.1483
     38  O15        0.3980   -3.0100   -6.6040 O.3     1  UNL1       -0.3518
     39  C23       -0.6660   -2.3050   -6.0430 C.3     1  UNL1        0.0738
     40  C24       -0.2760   -0.8520   -5.8770 C.3     1  UNL1        0.0738
     41  O16       -1.2960   -0.1630   -5.2240 O.3     1  UNL1       -0.3518
     42  C25       -0.6550    0.9240   -4.6320 C.3     1  UNL1        0.1483
     43  O17       -1.6020    1.7750   -4.0660 O.3     1  UNL1       -0.3518
     44  C26       -0.8620    2.6170   -3.2360 C.3     1  UNL1        0.0738
     45  C27       -1.5260    3.9770   -3.1750 C.3     1  UNL1        0.0738
     46  O18       -0.8350    4.7930   -2.2800 O.3     1  UNL1       -0.3518
     47  C28       -1.7550    5.7780   -1.9220 C.3     1  UNL1        0.1483
     48  O19       -1.5620    6.1320   -0.5870 O.3     1  UNL1       -0.3518
     49  C29       -2.6480    6.9510   -0.2780 C.3     1  UNL1        0.0738
     50  C30       -3.1080    6.6860    1.1440 C.3     1  UNL1        0.0738
     51  O20       -3.6910    5.4210    1.2250 O.3     1  UNL1       -0.3518
     52  C31       -3.8940    5.2130    2.5890 C.3     1  UNL1        0.1483
     53  O21       -4.1810    3.8680    2.8150 O.3     1  UNL1       -0.3518
     54  C32       -3.9720    3.6880    4.1810 C.3     1  UNL1        0.0738
     55  C33       -3.9270    2.2060    4.4950 C.3     1  UNL1        0.0738
     56  O22       -3.6840    2.0280    5.8570 O.3     1  UNL1       -0.3518
     57  C34       -3.2560    0.7060    5.9680 C.3     1  UNL1        0.1483
     58  O23       -2.1770    0.6380    6.8490 O.3     1  UNL1       -0.3518
     59  C35       -1.7530   -0.6900    6.7820 C.3     1  UNL1        0.0738
     60  C36       -0.2830   -0.7900    7.1490 C.3     1  UNL1        0.0738
     61  O24        0.4910   -0.0950    6.2180 O.3     1  UNL1       -0.3518
     62  C37        1.3550   -1.0510    5.6840 C.3     1  UNL1        0.1483
     63  O25        1.8100   -0.6240    4.4360 O.3     1  UNL1       -0.3518
     64  C38        1.1750   -1.4670    3.5250 C.3     1  UNL1        0.0738
     65  C39        0.8000   -0.6910    2.2760 C.3     1  UNL1        0.0738
     66  O26        1.9420   -0.4200    1.5230 O.3     1  UNL1       -0.3518
     67  C40        1.8670    0.9450    1.2480 C.3     1  UNL1        0.1483
     68  O27        1.7720    1.1430   -0.1300 O.3     1  UNL1       -0.3518
     69  C41        2.6180    2.2200   -0.3910 C.3     1  UNL1        0.0738
     70  C42        1.8060    3.3920   -0.9050 C.3     1  UNL1        0.0738
     71  O28        2.6470    4.4830   -1.1190 O.3     1  UNL1       -0.3518
     72  C43        2.0150    5.5480   -0.4780 C.3     1  UNL1        0.1483
     73  O29        2.9420    6.2250    0.3160 O.3     1  UNL1       -0.3518
     74  C44        2.3510    6.2870    1.5790 C.3     1  UNL1        0.0738
     75  C45        3.1680    5.4840    2.5760 C.3     1  UNL1        0.0738
     76  O30        3.0930    4.1270    2.2610 O.3     1  UNL1       -0.3518
     77  C46        3.7810    3.4840    3.2880 C.3     1  UNL1        0.1483
     78  O31        4.4060    2.3450    2.7840 O.3     1  UNL1       -0.3518
     79  C47        4.4940    1.4780    3.8740 C.3     1  UNL1        0.0738
     80  C48        5.3470    0.2770    3.5070 C.3     1  UNL1        0.0738
     81  O32        4.7010   -0.4850    2.5330 O.3     1  UNL1       -0.3518
     82  C49        5.6470   -0.6440    1.5210 C.3     1  UNL1        0.1483
     83  O33        5.0880   -0.2740    0.2980 O.3     1  UNL1       -0.3518
     84  C50        6.0810   -0.5560   -0.6400 C.3     1  UNL1        0.0738
     85  C51        5.6090   -0.1650   -2.0280 C.3     1  UNL1        0.0738
     86  O34        5.5000    1.2230   -2.1190 O.3     1  UNL1       -0.3518
     87  C52        5.1930    1.4610   -3.4590 C.3     1  UNL1        0.1483
     88  O35        4.9320    2.8180   -3.6480 O.3     1  UNL1       -0.3518
     89  C53        3.5560    2.8850   -3.8660 C.3     1  UNL1        0.0738
     90  C54        3.1780    4.2830   -4.3130 C.3     1  UNL1        0.0738
     91  O36        1.7890    4.3860   -4.3940 O.3     1  UNL1       -0.3518
     92  C55        1.5280    4.6770   -5.7340 C.3     1  UNL1        0.1483
     93  O37        0.7350    3.6680   -6.2840 O.3     1  UNL1       -0.3518
     94  C56        1.5400    3.0680   -7.2540 C.3     1  UNL1        0.0738
     95  C57        1.9100    1.6660   -6.8110 C.3     1  UNL1        0.0738
     96  O38        2.7270    1.0710   -7.7710 O.3     1  UNL1       -0.3518
     97  C58        3.5830    0.2480   -7.0400 C.3     1  UNL1        0.1483
     98  O39        3.3510   -1.0850   -7.3770 O.3     1  UNL1       -0.3518
     99  C59        4.2910   -1.8000   -6.6380 C.3     1  UNL1        0.0738
    100  C60        3.8310   -3.2360   -6.4880 C.3     1  UNL1        0.0738
    101  O40        4.7520   -3.9440   -5.7180 O.3     1  UNL1       -0.3518
    102  C61        4.0170   -4.4020   -4.6240 C.3     1  UNL1        0.1483
    103  O41        4.8810   -4.9110   -3.6550 O.3     1  UNL1       -0.3518
    104  C62        4.8890   -3.9470   -2.6470 C.3     1  UNL1        0.0738
    105  C63        4.8530   -4.6270   -1.2940 C.3     1  UNL1        0.0738
    106  O42        4.8960   -3.6610   -0.2900 O.3     1  UNL1       -0.3518
    107  C64        4.2670   -4.2590    0.8010 C.3     1  UNL1        0.1483
    108  O43        3.2990   -3.3940    1.3110 O.3     1  UNL1       -0.3518
    109  C65        2.2440   -4.2280    1.6780 C.3     1  UNL1        0.0738
    110  C66        0.9790   -3.7840    0.9740 C.3     1  UNL1        0.0738
    111  O44       -0.0730   -4.6250    1.3290 O.3     1  UNL1       -0.3518
    112  C67       -1.1990   -4.0380    0.7570 C.3     1  UNL1        0.1483
    113  O45       -2.3170   -4.8270    1.0190 O.3     1  UNL1       -0.3518
    114  C68       -3.3690   -4.1530    0.4030 C.3     1  UNL1        0.0738
    115  C69       -4.5860   -4.1780    1.3040 C.3     1  UNL1        0.0738
    116  O46       -5.6010   -3.4120    0.7340 O.3     1  UNL1       -0.3518
    117  C70       -6.2390   -2.8150    1.8210 C.3     1  UNL1        0.1483
    118  O47       -6.6330   -1.5220    1.4760 O.3     1  UNL1       -0.3518
    119  C71       -6.8100   -0.8720    2.6980 C.3     1  UNL1        0.0738
    120  C72       -7.0300    0.6110    2.4650 C.3     1  UNL1        0.0738
    121  O48       -5.8640    1.1910    1.9660 O.3     1  UNL1       -0.3518
    122  C73       -6.2920    2.0030    0.9160 C.3     1  UNL1        0.1483
    123  O49       -5.5660    1.6960   -0.2350 O.3     1  UNL1       -0.3518
    124  C74       -4.9230    2.8850   -0.5790 C.3     1  UNL1        0.0738
    125  C75       -3.4300    2.6470   -0.7080 C.3     1  UNL1        0.0739
    126  O50       -2.8880    2.3510    0.5440 O.3     1  UNL1       -0.3488
    127  C76       -1.5140    2.5330    0.3910 C.3     1  UNL1        0.1819
    128  O51       -1.1280    3.7140    1.0300 O.3     1  UNL1       -0.2037
    129  O52       -0.0690    3.3860    1.7400 O.3     1  UNL1       -0.1978
    130  C77       -0.4180    3.6740    3.0620 C.3     1  UNL1        0.2214
    131  O53        0.1640    4.8840    3.4470 O.3     1  UNL1       -0.3383
    132  C78       -0.8460    5.5680    4.1340 C.3     1  UNL1        0.1131
    133  C79       -0.7540    7.0570    3.8190 C.3     1  UNL1        0.0730
    134  O54        0.4910    7.5640    4.1990 O.3     1  UNL1       -0.3924
    135  C80       -0.7570    5.3050    5.6450 C.3     1  UNL1        0.1118
    136  O55       -1.7420    6.0460    6.3040 O.3     1  UNL1       -0.3865
    137  C81       -0.9340    3.8160    5.9850 C.3     1  UNL1        0.1119
    138  O56       -1.0130    3.6520    7.3690 O.3     1  UNL1       -0.3865
    139  C82        0.1970    2.9290    5.4450 C.3     1  UNL1        0.1142
    140  O57        1.4510    3.4980    5.6780 O.3     1  UNL1       -0.3864
    141  C83        0.0430    2.5360    3.9710 C.3     1  UNL1        0.1369
    142  O58       -0.8450    1.4680    3.8600 O.3     1  UNL1       -0.3840
    143  H1         2.2090   -1.7420   -0.4100 H       1  UNL1        0.1189
    144  H2         3.4320   -2.2510   -1.4470 H       1  UNL1        0.1189
    145  H3         0.6340   -0.0140   -2.2140 H       1  UNL1        0.0577
    146  H4        -0.3790   -1.3640   -2.8610 H       1  UNL1        0.0577
    147  H5         0.5220   -1.0160   -0.1620 H       1  UNL1        0.2095
    148  H6         3.1290   -2.1830   -3.8910 H       1  UNL1        0.0577
    149  H7         1.4670   -1.8190   -4.4990 H       1  UNL1        0.0577
    150  H8         2.6340    0.1500   -2.9150 H       1  UNL1        0.2095
    151  H9         2.2320   -3.9830   -2.4580 H       1  UNL1        0.0580
    152  H10        0.8770   -3.6270   -1.3140 H       1  UNL1        0.0580
    153  H11       -0.3480   -5.2960   -2.1480 H       1  UNL1        0.0583
    154  H12       -0.9960   -3.6660   -1.7700 H       1  UNL1        0.0583
    155  H13       -2.0810   -3.6450   -4.0460 H       1  UNL1        0.0584
    156  H14       -1.5490   -5.3490   -4.2590 H       1  UNL1        0.0584
    157  H15       -3.6970   -3.9340   -4.3640 H       1  UNL1        0.0871
    158  H16       -4.7990   -5.1600   -3.6490 H       1  UNL1        0.0871
    159  H17       -3.9440   -2.4320   -4.2540 H       1  UNL1        0.0584
    160  H18       -5.4070   -1.7760   -3.4360 H       1  UNL1        0.0584
    161  H19       -2.5860   -1.7580   -2.2590 H       1  UNL1        0.0584
    162  H20       -3.3730   -0.3640   -3.0790 H       1  UNL1        0.0584
    163  H21       -2.5060   -1.6760   -0.4020 H       1  UNL1        0.0871
    164  H22       -2.5560    0.1050   -0.6330 H       1  UNL1        0.0871
    165  H23       -1.8740   -1.5170    1.2670 H       1  UNL1        0.0584
    166  H24       -2.1160    0.1090    1.9900 H       1  UNL1        0.0584
    167  H25       -3.7230   -0.7810    3.5860 H       1  UNL1        0.0584
    168  H26       -3.6750   -2.3930    2.7950 H       1  UNL1        0.0584
    169  H27       -3.0000   -3.1270    5.0670 H       1  UNL1        0.0871
    170  H28       -2.6940   -3.7220    3.4000 H       1  UNL1        0.0871
    171  H29       -1.8700   -5.5910    5.1510 H       1  UNL1        0.0584
    172  H30       -1.7870   -5.2000    3.3990 H       1  UNL1        0.0584
    173  H31        0.7200   -5.2440    3.5640 H       1  UNL1        0.0584
    174  H32        0.5600   -5.7830    5.2700 H       1  UNL1        0.0584
    175  H33        1.5410   -6.3920    2.8290 H       1  UNL1        0.0871
    176  H34        1.6710   -8.0740    3.4490 H       1  UNL1        0.0871
    177  H35        1.9750   -6.5130    1.1580 H       1  UNL1        0.0584
    178  H36        2.2840   -8.2500    0.8160 H       1  UNL1        0.0584
    179  H37        0.4870   -8.2720   -0.8530 H       1  UNL1        0.0584
    180  H38        0.0790   -6.5640   -0.4680 H       1  UNL1        0.0584
    181  H39        1.9750   -8.3360   -2.8420 H       1  UNL1        0.0871
    182  H40        0.3640   -7.5690   -2.6290 H       1  UNL1        0.0871
    183  H41        2.3220   -7.3120   -5.4410 H       1  UNL1        0.0584
    184  H42        0.9440   -8.1080   -4.5980 H       1  UNL1        0.0584
    185  H43        0.1000   -6.8840   -6.5310 H       1  UNL1        0.0584
    186  H44       -0.4320   -6.0570   -5.0220 H       1  UNL1        0.0584
    187  H45       -0.2760   -4.6790   -7.5710 H       1  UNL1        0.0871
    188  H46       -0.8700   -4.4450   -5.8920 H       1  UNL1        0.0871
    189  H47       -1.5420   -2.3770   -6.7050 H       1  UNL1        0.0584
    190  H48       -0.9140   -2.7340   -5.0610 H       1  UNL1        0.0584
    191  H49        0.6480   -0.7880   -5.2830 H       1  UNL1        0.0584
    192  H50       -0.1090   -0.4040   -6.8680 H       1  UNL1        0.0584
    193  H51        0.0280    0.5640   -3.8480 H       1  UNL1        0.0871
    194  H52       -0.0830    1.4710   -5.3960 H       1  UNL1        0.0871
    195  H53       -0.8150    2.1860   -2.2250 H       1  UNL1        0.0584
    196  H54        0.1560    2.7240   -3.6370 H       1  UNL1        0.0584
    197  H55       -1.5140    4.4360   -4.1740 H       1  UNL1        0.0584
    198  H56       -2.5670    3.8620   -2.8370 H       1  UNL1        0.0584
    199  H57       -1.6130    6.6630   -2.5600 H       1  UNL1        0.0871
    200  H58       -2.7760    5.3910   -2.0540 H       1  UNL1        0.0871
    201  H59       -2.3490    8.0050   -0.3740 H       1  UNL1        0.0584
    202  H60       -3.4740    6.7330   -0.9720 H       1  UNL1        0.0584
    203  H61       -2.2440    6.7340    1.8220 H       1  UNL1        0.0584
    204  H62       -3.8490    7.4460    1.4330 H       1  UNL1        0.0584
    205  H63       -2.9840    5.4910    3.1420 H       1  UNL1        0.0871
    206  H64       -4.7360    5.8310    2.9330 H       1  UNL1        0.0871
    207  H65       -3.0170    4.1520    4.4690 H       1  UNL1        0.0584
    208  H66       -4.7930    4.1570    4.7420 H       1  UNL1        0.0584
    209  H67       -4.8910    1.7470    4.2320 H       1  UNL1        0.0584
    210  H68       -3.1240    1.7320    3.9140 H       1  UNL1        0.0584
    211  H69       -4.0800    0.0850    6.3500 H       1  UNL1        0.0871
    212  H70       -2.9460    0.3370    4.9790 H       1  UNL1        0.0871
    213  H71       -2.3450   -1.2960    7.4830 H       1  UNL1        0.0584
    214  H72       -1.8930   -1.0600    5.7550 H       1  UNL1        0.0584
    215  H73       -0.1270   -0.3560    8.1480 H       1  UNL1        0.0584
    216  H74        0.0180   -1.8480    7.1500 H       1  UNL1        0.0584
    217  H75        2.2130   -1.1870    6.3600 H       1  UNL1        0.0871
    218  H76        0.8210   -2.0060    5.5720 H       1  UNL1        0.0871
    219  H77        1.8550   -2.2880    3.2530 H       1  UNL1        0.0584
    220  H78        0.2630   -1.8760    3.9840 H       1  UNL1        0.0584
    221  H79        0.0990   -1.2870    1.6740 H       1  UNL1        0.0584
    222  H80        0.3270    0.2580    2.5700 H       1  UNL1        0.0584
    223  H81        0.9800    1.3690    1.7400 H       1  UNL1        0.0871
    224  H82        2.7730    1.4420    1.6250 H       1  UNL1        0.0871
    225  H83        3.1360    2.5110    0.5350 H       1  UNL1        0.0584
    226  H84        3.3580    1.9270   -1.1510 H       1  UNL1        0.0584
    227  H85        1.3200    3.1130   -1.8520 H       1  UNL1        0.0584
    228  H86        1.0390    3.6600   -0.1640 H       1  UNL1        0.0584
    229  H87        1.6040    6.2370   -1.2310 H       1  UNL1        0.0871
    230  H88        1.1990    5.1670    0.1520 H       1  UNL1        0.0871
    231  H89        2.3040    7.3360    1.9080 H       1  UNL1        0.0584
    232  H90        1.3360    5.8680    1.5240 H       1  UNL1        0.0584
    233  H91        4.2170    5.8110    2.5370 H       1  UNL1        0.0584
    234  H92        2.7680    5.6450    3.5880 H       1  UNL1        0.0584
    235  H93        4.5380    4.1650    3.7050 H       1  UNL1        0.0871
    236  H94        3.0740    3.1960    4.0800 H       1  UNL1        0.0871
    237  H95        4.9520    2.0060    4.7240 H       1  UNL1        0.0584
    238  H96        3.4850    1.1380    4.1500 H       1  UNL1        0.0584
    239  H97        6.3150    0.6230    3.1170 H       1  UNL1        0.0584
    240  H98        5.5050   -0.3410    4.4040 H       1  UNL1        0.0584
    241  H99        6.5200   -0.0070    1.7310 H       1  UNL1        0.0871
    242  HA0        5.9630   -1.6960    1.4760 H       1  UNL1        0.0871
    243  HA1        6.9890    0.0120   -0.3910 H       1  UNL1        0.0584
    244  HA2        6.2990   -1.6340   -0.6230 H       1  UNL1        0.0584
    245  HA3        6.3340   -0.5240   -2.7740 H       1  UNL1        0.0584
    246  HA4        4.6250   -0.6190   -2.2170 H       1  UNL1        0.0584
    247  HA5        6.0450    1.1620   -4.0880 H       1  UNL1        0.0871
    248  HA6        4.3050    0.8760   -3.7400 H       1  UNL1        0.0871
    249  HA7        3.2740    2.1620   -4.6460 H       1  UNL1        0.0584
    250  HA8        3.0260    2.6450   -2.9320 H       1  UNL1        0.0584
    251  HA9        3.5580    5.0150   -3.5870 H       1  UNL1        0.0584
    252  HB0        3.6180    4.4830   -5.3010 H       1  UNL1        0.0584
    253  HB1        0.9990    5.6390   -5.8040 H       1  UNL1        0.0871
    254  HB2        2.4770    4.7390   -6.2870 H       1  UNL1        0.0871
    255  HB3        0.9910    3.0190   -8.2060 H       1  UNL1        0.0584
    256  HB4        2.4560    3.6630   -7.3870 H       1  UNL1        0.0584
    257  HB5        2.4480    1.7150   -5.8530 H       1  UNL1        0.0584
    258  HB6        0.9940    1.0690   -6.6900 H       1  UNL1        0.0584
    259  HB7        4.6270    0.5070   -7.2720 H       1  UNL1        0.0871
    260  HB8        3.3980    0.3910   -5.9650 H       1  UNL1        0.0871
    261  HB9        5.2600   -1.7790   -7.1590 H       1  UNL1        0.0584
    262  HC0        4.3990   -1.3440   -5.6430 H       1  UNL1        0.0584
    263  HC1        2.8490   -3.2560   -5.9930 H       1  UNL1        0.0584
    264  HC2        3.7520   -3.7000   -7.4820 H       1  UNL1        0.0584
    265  HC3        3.4390   -3.5690   -4.1980 H       1  UNL1        0.0871
    266  HC4        3.3310   -5.1970   -4.9540 H       1  UNL1        0.0871
    267  HC5        5.8030   -3.3410   -2.7280 H       1  UNL1        0.0584
    268  HC6        4.0070   -3.2990   -2.7540 H       1  UNL1        0.0584
    269  HC7        3.9260   -5.2110   -1.2020 H       1  UNL1        0.0584
    270  HC8        5.7190   -5.2980   -1.1960 H       1  UNL1        0.0584
    271  HC9        3.7890   -5.1970    0.4800 H       1  UNL1        0.0871
    272  HD0        5.0120   -4.4760    1.5800 H       1  UNL1        0.0871
    273  HD1        2.4790   -5.2640    1.3930 H       1  UNL1        0.0584
    274  HD2        2.0960   -4.1710    2.7670 H       1  UNL1        0.0584
    275  HD3        0.7390   -2.7520    1.2680 H       1  UNL1        0.0584
    276  HD4        1.1320   -3.8300   -0.1150 H       1  UNL1        0.0584
    277  HD5       -1.3480   -3.0360    1.1840 H       1  UNL1        0.0871
    278  HD6       -1.0560   -3.9550   -0.3310 H       1  UNL1        0.0871
    279  HD7       -3.0740   -3.1100    0.2150 H       1  UNL1        0.0584
    280  HD8       -3.6100   -4.6450   -0.5500 H       1  UNL1        0.0584
    281  HD9       -4.9320   -5.2150    1.4240 H       1  UNL1        0.0584
    282  HE0       -4.3220   -3.7640    2.2890 H       1  UNL1        0.0584
    283  HE1       -7.1250   -3.4060    2.0960 H       1  UNL1        0.0871
    284  HE2       -5.5470   -2.7720    2.6740 H       1  UNL1        0.0871
    285  HE3       -7.6850   -1.2950    3.2130 H       1  UNL1        0.0584
    286  HE4       -5.9110   -1.0120    3.3170 H       1  UNL1        0.0584
    287  HE5       -7.8460    0.7490    1.7400 H       1  UNL1        0.0584
    288  HE6       -7.2960    1.0920    3.4180 H       1  UNL1        0.0584
    289  HE7       -7.3630    1.8300    0.7320 H       1  UNL1        0.0871
    290  HE8       -6.1320    3.0590    1.1800 H       1  UNL1        0.0871
    291  HE9       -5.3180    3.2500   -1.5390 H       1  UNL1        0.0584
    292  HF0       -5.1030    3.6350    0.2060 H       1  UNL1        0.0584
    293  HF1       -3.2530    1.8030   -1.3910 H       1  UNL1        0.0584
    294  HF2       -2.9500    3.5530   -1.1060 H       1  UNL1        0.0584
    295  HF3       -0.9790    1.6830    0.8370 H       1  UNL1        0.0902
    296  HF4       -1.2690    2.5990   -0.6800 H       1  UNL1        0.0902
    297  HF5       -1.5110    3.7700    3.1460 H       1  UNL1        0.0968
    298  HF6       -1.8270    5.1970    3.8010 H       1  UNL1        0.0647
    299  HF7       -0.8890    7.2060    2.7370 H       1  UNL1        0.0584
    300  HF8       -1.5390    7.5870    4.3780 H       1  UNL1        0.0584
    301  HF9        0.5490    7.5880    5.1870 H       1  UNL1        0.2095
    302  HG0        0.2460    5.6110    5.9790 H       1  UNL1        0.0647
    303  HG1       -1.6230    5.9570    7.2830 H       1  UNL1        0.2100
    304  HG2       -1.8640    3.4960    5.4930 H       1  UNL1        0.0647
    305  HG3       -0.6280    4.4460    7.8170 H       1  UNL1        0.2100
    306  HG4        0.1180    1.9910    6.0150 H       1  UNL1        0.0648
    307  HG5        1.6060    3.5680    6.6540 H       1  UNL1        0.2100
    308  HG6        1.0490    2.2550    3.6270 H       1  UNL1        0.0672
    309  HG7       -1.1030    1.1570    4.7640 H       1  UNL1        0.2101
@<TRIPOS>BOND
     1     1     2    1
     2     1   143    1
     3     1   144    1
     4     2     3    1
     5     2     5    1
     6     2     7    1
     7     3     4    1
     8     3   145    1
     9     3   146    1
    10     4   147    1
    11     5     6    1
    12     5   148    1
    13     5   149    1
    14     6   150    1
    15     7     8    1
    16     7   151    1
    17     7   152    1
    18     8     9    1
    19     9    10    1
    20     9   153    1
    21     9   154    1
    22    10    11    1
    23    10   155    1
    24    10   156    1
    25    11    12    1
    26    12    13    1
    27    12   157    1
    28    12   158    1
    29    13    14    1
    30    14    15    1
    31    14   159    1
    32    14   160    1
    33    15    16    1
    34    15   161    1
    35    15   162    1
    36    16    17    1
    37    17    18    1
    38    17   163    1
    39    17   164    1
    40    18    19    1
    41    19    20    1
    42    19   165    1
    43    19   166    1
    44    20    21    1
    45    20   167    1
    46    20   168    1
    47    21    22    1
    48    22    23    1
    49    22   169    1
    50    22   170    1
    51    23    24    1
    52    24    25    1
    53    24   171    1
    54    24   172    1
    55    25    26    1
    56    25   173    1
    57    25   174    1
    58    26    27    1
    59    27    28    1
    60    27   175    1
    61    27   176    1
    62    28    29    1
    63    29    30    1
    64    29   177    1
    65    29   178    1
    66    30    31    1
    67    30   179    1
    68    30   180    1
    69    31    32    1
    70    32    33    1
    71    32   181    1
    72    32   182    1
    73    33    34    1
    74    34    35    1
    75    34   183    1
    76    34   184    1
    77    35    36    1
    78    35   185    1
    79    35   186    1
    80    36    37    1
    81    37    38    1
    82    37   187    1
    83    37   188    1
    84    38    39    1
    85    39    40    1
    86    39   189    1
    87    39   190    1
    88    40    41    1
    89    40   191    1
    90    40   192    1
    91    41    42    1
    92    42    43    1
    93    42   193    1
    94    42   194    1
    95    43    44    1
    96    44    45    1
    97    44   195    1
    98    44   196    1
    99    45    46    1
   100    45   197    1
   101    45   198    1
   102    46    47    1
   103    47    48    1
   104    47   199    1
   105    47   200    1
   106    48    49    1
   107    49    50    1
   108    49   201    1
   109    49   202    1
   110    50    51    1
   111    50   203    1
   112    50   204    1
   113    51    52    1
   114    52    53    1
   115    52   205    1
   116    52   206    1
   117    53    54    1
   118    54    55    1
   119    54   207    1
   120    54   208    1
   121    55    56    1
   122    55   209    1
   123    55   210    1
   124    56    57    1
   125    57    58    1
   126    57   211    1
   127    57   212    1
   128    58    59    1
   129    59    60    1
   130    59   213    1
   131    59   214    1
   132    60    61    1
   133    60   215    1
   134    60   216    1
   135    61    62    1
   136    62    63    1
   137    62   217    1
   138    62   218    1
   139    63    64    1
   140    64    65    1
   141    64   219    1
   142    64   220    1
   143    65    66    1
   144    65   221    1
   145    65   222    1
   146    66    67    1
   147    67    68    1
   148    67   223    1
   149    67   224    1
   150    68    69    1
   151    69    70    1
   152    69   225    1
   153    69   226    1
   154    70    71    1
   155    70   227    1
   156    70   228    1
   157    71    72    1
   158    72    73    1
   159    72   229    1
   160    72   230    1
   161    73    74    1
   162    74    75    1
   163    74   231    1
   164    74   232    1
   165    75    76    1
   166    75   233    1
   167    75   234    1
   168    76    77    1
   169    77    78    1
   170    77   235    1
   171    77   236    1
   172    78    79    1
   173    79    80    1
   174    79   237    1
   175    79   238    1
   176    80    81    1
   177    80   239    1
   178    80   240    1
   179    81    82    1
   180    82    83    1
   181    82   241    1
   182    82   242    1
   183    83    84    1
   184    84    85    1
   185    84   243    1
   186    84   244    1
   187    85    86    1
   188    85   245    1
   189    85   246    1
   190    86    87    1
   191    87    88    1
   192    87   247    1
   193    87   248    1
   194    88    89    1
   195    89    90    1
   196    89   249    1
   197    89   250    1
   198    90    91    1
   199    90   251    1
   200    90   252    1
   201    91    92    1
   202    92    93    1
   203    92   253    1
   204    92   254    1
   205    93    94    1
   206    94    95    1
   207    94   255    1
   208    94   256    1
   209    95    96    1
   210    95   257    1
   211    95   258    1
   212    96    97    1
   213    97    98    1
   214    97   259    1
   215    97   260    1
   216    98    99    1
   217    99   100    1
   218    99   261    1
   219    99   262    1
   220   100   101    1
   221   100   263    1
   222   100   264    1
   223   101   102    1
   224   102   103    1
   225   102   265    1
   226   102   266    1
   227   103   104    1
   228   104   105    1
   229   104   267    1
   230   104   268    1
   231   105   106    1
   232   105   269    1
   233   105   270    1
   234   106   107    1
   235   107   108    1
   236   107   271    1
   237   107   272    1
   238   108   109    1
   239   109   110    1
   240   109   273    1
   241   109   274    1
   242   110   111    1
   243   110   275    1
   244   110   276    1
   245   111   112    1
   246   112   113    1
   247   112   277    1
   248   112   278    1
   249   113   114    1
   250   114   115    1
   251   114   279    1
   252   114   280    1
   253   115   116    1
   254   115   281    1
   255   115   282    1
   256   116   117    1
   257   117   118    1
   258   117   283    1
   259   117   284    1
   260   118   119    1
   261   119   120    1
   262   119   285    1
   263   119   286    1
   264   120   121    1
   265   120   287    1
   266   120   288    1
   267   121   122    1
   268   122   123    1
   269   122   289    1
   270   122   290    1
   271   123   124    1
   272   124   125    1
   273   124   291    1
   274   124   292    1
   275   125   126    1
   276   125   293    1
   277   125   294    1
   278   126   127    1
   279   127   128    1
   280   127   295    1
   281   127   296    1
   282   128   129    1
   283   129   130    1
   284   130   131    1
   285   130   141    1
   286   130   297    1
   287   131   132    1
   288   132   133    1
   289   132   135    1
   290   132   298    1
   291   133   134    1
   292   133   299    1
   293   133   300    1
   294   134   301    1
   295   135   136    1
   296   135   137    1
   297   135   302    1
   298   136   303    1
   299   137   138    1
   300   137   139    1
   301   137   304    1
   302   138   305    1
   303   139   140    1
   304   139   141    1
   305   139   306    1
   306   140   307    1
   307   141   142    1
   308   141   308    1
   309   142   309    1
