lig
 OpenBabel01182601293D

309309  0  0  0  0  0  0  0  0999 V2000
    2.6280   -1.6160   -1.3420 N   0  0  0  0  0  0  0  0  0  0  0  0
    1.6380   -1.9150   -2.3620 C   0  0  0  0  0  0  0  0  0  0  0  0
    0.3810   -1.0800   -2.1180 C   0  0  0  0  0  0  0  0  0  0  0  0
   -0.1330   -1.3150   -0.8420 O   0  0  0  0  0  0  0  0  0  0  0  0
    2.2200   -1.5850   -3.7320 C   0  0  0  0  0  0  0  0  0  0  0  0
    2.5430   -0.2300   -3.8250 O   0  0  0  0  0  0  0  0  0  0  0  0
    1.3090   -3.4060   -2.3010 C   0  0  0  0  0  0  0  0  0  0  0  0
    0.3780   -3.7580   -3.2810 O   0  0  0  0  0  0  0  0  0  0  0  0
   -0.6760   -4.3390   -2.5790 C   0  0  0  0  0  0  0  0  0  0  0  0
   -1.8330   -4.5810   -3.5240 C   0  0  0  0  0  0  0  0  0  0  0  0
   -2.9430   -5.0190   -2.8040 O   0  0  0  0  0  0  0  0  0  0  0  0
   -4.0300   -4.4050   -3.4280 C   0  0  0  0  0  0  0  0  0  0  0  0
   -4.5670   -3.4310   -2.5830 O   0  0  0  0  0  0  0  0  0  0  0  0
   -4.4170   -2.2310   -3.2820 C   0  0  0  0  0  0  0  0  0  0  0  0
   -3.5470   -1.2740   -2.4860 C   0  0  0  0  0  0  0  0  0  0  0  0
   -4.1860   -0.9320   -1.2950 O   0  0  0  0  0  0  0  0  0  0  0  0
   -3.1490   -0.7840   -0.3750 C   0  0  0  0  0  0  0  0  0  0  0  0
   -3.6790   -0.6330    0.9040 O   0  0  0  0  0  0  0  0  0  0  0  0
   -2.5990   -0.8510    1.7570 C   0  0  0  0  0  0  0  0  0  0  0  0
   -3.0900   -1.4940    3.0370 C   0  0  0  0  0  0  0  0  0  0  0  0
   -1.9980   -1.8490    3.8260 O   0  0  0  0  0  0  0  0  0  0  0  0
   -2.2740   -3.1510    4.2410 C   0  0  0  0  0  0  0  0  0  0  0  0
   -1.0970   -3.7610    4.6740 O   0  0  0  0  0  0  0  0  0  0  0  0
   -1.2690   -5.1090    4.3660 C   0  0  0  0  0  0  0  0  0  0  0  0
    0.0830   -5.7870    4.2790 C   0  0  0  0  0  0  0  0  0  0  0  0
   -0.0830   -7.1030    3.8470 O   0  0  0  0  0  0  0  0  0  0  0  0
    0.9960   -7.3340    2.9940 C   0  0  0  0  0  0  0  0  0  0  0  0
    0.5300   -7.8210    1.7730 O   0  0  0  0  0  0  0  0  0  0  0  0
    1.5150   -7.4640    0.8520 C   0  0  0  0  0  0  0  0  0  0  0  0
    0.8910   -7.3040   -0.5200 C   0  0  0  0  0  0  0  0  0  0  0  0
    1.8590   -6.8690   -1.4240 O   0  0  0  0  0  0  0  0  0  0  0  0
    1.4490   -7.3890   -2.6520 C   0  0  0  0  0  0  0  0  0  0  0  0
    1.7470   -6.4800   -3.6660 O   0  0  0  0  0  0  0  0  0  0  0  0
    1.4120   -7.1440   -4.8470 C   0  0  0  0  0  0  0  0  0  0  0  0
    0.4320   -6.3090   -5.6540 C   0  0  0  0  0  0  0  0  0  0  0  0
    1.0460   -5.1310   -6.0800 O   0  0  0  0  0  0  0  0  0  0  0  0
   -0.0020   -4.3450   -6.5600 C   0  0  0  0  0  0  0  0  0  0  0  0
    0.3980   -3.0100   -6.6040 O   0  0  0  0  0  0  0  0  0  0  0  0
   -0.6660   -2.3050   -6.0430 C   0  0  0  0  0  0  0  0  0  0  0  0
   -0.2760   -0.8520   -5.8770 C   0  0  0  0  0  0  0  0  0  0  0  0
   -1.2960   -0.1630   -5.2240 O   0  0  0  0  0  0  0  0  0  0  0  0
   -0.6550    0.9240   -4.6320 C   0  0  0  0  0  0  0  0  0  0  0  0
   -1.6020    1.7750   -4.0660 O   0  0  0  0  0  0  0  0  0  0  0  0
   -0.8620    2.6170   -3.2360 C   0  0  0  0  0  0  0  0  0  0  0  0
   -1.5260    3.9770   -3.1750 C   0  0  0  0  0  0  0  0  0  0  0  0
   -0.8350    4.7930   -2.2800 O   0  0  0  0  0  0  0  0  0  0  0  0
   -1.7550    5.7780   -1.9220 C   0  0  0  0  0  0  0  0  0  0  0  0
   -1.5620    6.1320   -0.5870 O   0  0  0  0  0  0  0  0  0  0  0  0
   -2.6480    6.9510   -0.2780 C   0  0  0  0  0  0  0  0  0  0  0  0
   -3.1080    6.6860    1.1440 C   0  0  0  0  0  0  0  0  0  0  0  0
   -3.6910    5.4210    1.2250 O   0  0  0  0  0  0  0  0  0  0  0  0
   -3.8940    5.2130    2.5890 C   0  0  0  0  0  0  0  0  0  0  0  0
   -4.1810    3.8680    2.8150 O   0  0  0  0  0  0  0  0  0  0  0  0
   -3.9720    3.6880    4.1810 C   0  0  0  0  0  0  0  0  0  0  0  0
   -3.9270    2.2060    4.4950 C   0  0  0  0  0  0  0  0  0  0  0  0
   -3.6840    2.0280    5.8570 O   0  0  0  0  0  0  0  0  0  0  0  0
   -3.2560    0.7060    5.9680 C   0  0  0  0  0  0  0  0  0  0  0  0
   -2.1770    0.6380    6.8490 O   0  0  0  0  0  0  0  0  0  0  0  0
   -1.7530   -0.6900    6.7820 C   0  0  0  0  0  0  0  0  0  0  0  0
   -0.2830   -0.7900    7.1490 C   0  0  0  0  0  0  0  0  0  0  0  0
    0.4910   -0.0950    6.2180 O   0  0  0  0  0  0  0  0  0  0  0  0
    1.3550   -1.0510    5.6840 C   0  0  0  0  0  0  0  0  0  0  0  0
    1.8100   -0.6240    4.4360 O   0  0  0  0  0  0  0  0  0  0  0  0
    1.1750   -1.4670    3.5250 C   0  0  0  0  0  0  0  0  0  0  0  0
    0.8000   -0.6910    2.2760 C   0  0  0  0  0  0  0  0  0  0  0  0
    1.9420   -0.4200    1.5230 O   0  0  0  0  0  0  0  0  0  0  0  0
    1.8670    0.9450    1.2480 C   0  0  0  0  0  0  0  0  0  0  0  0
    1.7720    1.1430   -0.1300 O   0  0  0  0  0  0  0  0  0  0  0  0
    2.6180    2.2200   -0.3910 C   0  0  0  0  0  0  0  0  0  0  0  0
    1.8060    3.3920   -0.9050 C   0  0  0  0  0  0  0  0  0  0  0  0
    2.6470    4.4830   -1.1190 O   0  0  0  0  0  0  0  0  0  0  0  0
    2.0150    5.5480   -0.4780 C   0  0  0  0  0  0  0  0  0  0  0  0
    2.9420    6.2250    0.3160 O   0  0  0  0  0  0  0  0  0  0  0  0
    2.3510    6.2870    1.5790 C   0  0  0  0  0  0  0  0  0  0  0  0
    3.1680    5.4840    2.5760 C   0  0  0  0  0  0  0  0  0  0  0  0
    3.0930    4.1270    2.2610 O   0  0  0  0  0  0  0  0  0  0  0  0
    3.7810    3.4840    3.2880 C   0  0  0  0  0  0  0  0  0  0  0  0
    4.4060    2.3450    2.7840 O   0  0  0  0  0  0  0  0  0  0  0  0
    4.4940    1.4780    3.8740 C   0  0  0  0  0  0  0  0  0  0  0  0
    5.3470    0.2770    3.5070 C   0  0  0  0  0  0  0  0  0  0  0  0
    4.7010   -0.4850    2.5330 O   0  0  0  0  0  0  0  0  0  0  0  0
    5.6470   -0.6440    1.5210 C   0  0  0  0  0  0  0  0  0  0  0  0
    5.0880   -0.2740    0.2980 O   0  0  0  0  0  0  0  0  0  0  0  0
    6.0810   -0.5560   -0.6400 C   0  0  0  0  0  0  0  0  0  0  0  0
    5.6090   -0.1650   -2.0280 C   0  0  0  0  0  0  0  0  0  0  0  0
    5.5000    1.2230   -2.1190 O   0  0  0  0  0  0  0  0  0  0  0  0
    5.1930    1.4610   -3.4590 C   0  0  0  0  0  0  0  0  0  0  0  0
    4.9320    2.8180   -3.6480 O   0  0  0  0  0  0  0  0  0  0  0  0
    3.5560    2.8850   -3.8660 C   0  0  0  0  0  0  0  0  0  0  0  0
    3.1780    4.2830   -4.3130 C   0  0  0  0  0  0  0  0  0  0  0  0
    1.7890    4.3860   -4.3940 O   0  0  0  0  0  0  0  0  0  0  0  0
    1.5280    4.6770   -5.7340 C   0  0  0  0  0  0  0  0  0  0  0  0
    0.7350    3.6680   -6.2840 O   0  0  0  0  0  0  0  0  0  0  0  0
    1.5400    3.0680   -7.2540 C   0  0  0  0  0  0  0  0  0  0  0  0
    1.9100    1.6660   -6.8110 C   0  0  0  0  0  0  0  0  0  0  0  0
    2.7270    1.0710   -7.7710 O   0  0  0  0  0  0  0  0  0  0  0  0
    3.5830    0.2480   -7.0400 C   0  0  0  0  0  0  0  0  0  0  0  0
    3.3510   -1.0850   -7.3770 O   0  0  0  0  0  0  0  0  0  0  0  0
    4.2910   -1.8000   -6.6380 C   0  0  0  0  0  0  0  0  0  0  0  0
    3.8310   -3.2360   -6.4880 C   0  0  0  0  0  0  0  0  0  0  0  0
    4.7520   -3.9440   -5.7180 O   0  0  0  0  0  0  0  0  0  0  0  0
    4.0170   -4.4020   -4.6240 C   0  0  0  0  0  0  0  0  0  0  0  0
    4.8810   -4.9110   -3.6550 O   0  0  0  0  0  0  0  0  0  0  0  0
    4.8890   -3.9470   -2.6470 C   0  0  0  0  0  0  0  0  0  0  0  0
    4.8530   -4.6270   -1.2940 C   0  0  0  0  0  0  0  0  0  0  0  0
    4.8960   -3.6610   -0.2900 O   0  0  0  0  0  0  0  0  0  0  0  0
    4.2670   -4.2590    0.8010 C   0  0  0  0  0  0  0  0  0  0  0  0
    3.2990   -3.3940    1.3110 O   0  0  0  0  0  0  0  0  0  0  0  0
    2.2440   -4.2280    1.6780 C   0  0  0  0  0  0  0  0  0  0  0  0
    0.9790   -3.7840    0.9740 C   0  0  0  0  0  0  0  0  0  0  0  0
   -0.0730   -4.6250    1.3290 O   0  0  0  0  0  0  0  0  0  0  0  0
   -1.1990   -4.0380    0.7570 C   0  0  0  0  0  0  0  0  0  0  0  0
   -2.3170   -4.8270    1.0190 O   0  0  0  0  0  0  0  0  0  0  0  0
   -3.3690   -4.1530    0.4030 C   0  0  0  0  0  0  0  0  0  0  0  0
   -4.5860   -4.1780    1.3040 C   0  0  0  0  0  0  0  0  0  0  0  0
   -5.6010   -3.4120    0.7340 O   0  0  0  0  0  0  0  0  0  0  0  0
   -6.2390   -2.8150    1.8210 C   0  0  0  0  0  0  0  0  0  0  0  0
   -6.6330   -1.5220    1.4760 O   0  0  0  0  0  0  0  0  0  0  0  0
   -6.8100   -0.8720    2.6980 C   0  0  0  0  0  0  0  0  0  0  0  0
   -7.0300    0.6110    2.4650 C   0  0  0  0  0  0  0  0  0  0  0  0
   -5.8640    1.1910    1.9660 O   0  0  0  0  0  0  0  0  0  0  0  0
   -6.2920    2.0030    0.9160 C   0  0  0  0  0  0  0  0  0  0  0  0
   -5.5660    1.6960   -0.2350 O   0  0  0  0  0  0  0  0  0  0  0  0
   -4.9230    2.8850   -0.5790 C   0  0  0  0  0  0  0  0  0  0  0  0
   -3.4300    2.6470   -0.7080 C   0  0  0  0  0  0  0  0  0  0  0  0
   -2.8880    2.3510    0.5440 O   0  0  0  0  0  0  0  0  0  0  0  0
   -1.5140    2.5330    0.3910 C   0  0  0  0  0  0  0  0  0  0  0  0
   -1.1280    3.7140    1.0300 O   0  0  0  0  0  0  0  0  0  0  0  0
   -0.0690    3.3860    1.7400 O   0  0  0  0  0  0  0  0  0  0  0  0
   -0.4180    3.6740    3.0620 C   0  0  2  0  0  0  0  0  0  0  0  0
    0.1640    4.8840    3.4470 O   0  0  0  0  0  0  0  0  0  0  0  0
   -0.8460    5.5680    4.1340 C   0  0  2  0  0  0  0  0  0  0  0  0
   -0.7540    7.0570    3.8190 C   0  0  0  0  0  0  0  0  0  0  0  0
    0.4910    7.5640    4.1990 O   0  0  0  0  0  0  0  0  0  0  0  0
   -0.7570    5.3050    5.6450 C   0  0  1  0  0  0  0  0  0  0  0  0
   -1.7420    6.0460    6.3040 O   0  0  0  0  0  0  0  0  0  0  0  0
   -0.9340    3.8160    5.9850 C   0  0  2  0  0  0  0  0  0  0  0  0
   -1.0130    3.6520    7.3690 O   0  0  0  0  0  0  0  0  0  0  0  0
    0.1970    2.9290    5.4450 C   0  0  2  0  0  0  0  0  0  0  0  0
    1.4510    3.4980    5.6780 O   0  0  0  0  0  0  0  0  0  0  0  0
    0.0430    2.5360    3.9710 C   0  0  1  0  0  0  0  0  0  0  0  0
   -0.8450    1.4680    3.8600 O   0  0  0  0  0  0  0  0  0  0  0  0
    2.2090   -1.7420   -0.4100 H   0  0  0  0  0  0  0  0  0  0  0  0
    3.4320   -2.2510   -1.4470 H   0  0  0  0  0  0  0  0  0  0  0  0
    0.6340   -0.0140   -2.2140 H   0  0  0  0  0  0  0  0  0  0  0  0
   -0.3790   -1.3640   -2.8610 H   0  0  0  0  0  0  0  0  0  0  0  0
    0.5220   -1.0160   -0.1620 H   0  0  0  0  0  0  0  0  0  0  0  0
    3.1290   -2.1830   -3.8910 H   0  0  0  0  0  0  0  0  0  0  0  0
    1.4670   -1.8190   -4.4990 H   0  0  0  0  0  0  0  0  0  0  0  0
    2.6340    0.1500   -2.9150 H   0  0  0  0  0  0  0  0  0  0  0  0
    2.2320   -3.9830   -2.4580 H   0  0  0  0  0  0  0  0  0  0  0  0
    0.8770   -3.6270   -1.3140 H   0  0  0  0  0  0  0  0  0  0  0  0
   -0.3480   -5.2960   -2.1480 H   0  0  0  0  0  0  0  0  0  0  0  0
   -0.9960   -3.6660   -1.7700 H   0  0  0  0  0  0  0  0  0  0  0  0
   -2.0810   -3.6450   -4.0460 H   0  0  0  0  0  0  0  0  0  0  0  0
   -1.5490   -5.3490   -4.2590 H   0  0  0  0  0  0  0  0  0  0  0  0
   -3.6970   -3.9340   -4.3640 H   0  0  0  0  0  0  0  0  0  0  0  0
   -4.7990   -5.1600   -3.6490 H   0  0  0  0  0  0  0  0  0  0  0  0
   -3.9440   -2.4320   -4.2540 H   0  0  0  0  0  0  0  0  0  0  0  0
   -5.4070   -1.7760   -3.4360 H   0  0  0  0  0  0  0  0  0  0  0  0
   -2.5860   -1.7580   -2.2590 H   0  0  0  0  0  0  0  0  0  0  0  0
   -3.3730   -0.3640   -3.0790 H   0  0  0  0  0  0  0  0  0  0  0  0
   -2.5060   -1.6760   -0.4020 H   0  0  0  0  0  0  0  0  0  0  0  0
   -2.5560    0.1050   -0.6330 H   0  0  0  0  0  0  0  0  0  0  0  0
   -1.8740   -1.5170    1.2670 H   0  0  0  0  0  0  0  0  0  0  0  0
   -2.1160    0.1090    1.9900 H   0  0  0  0  0  0  0  0  0  0  0  0
   -3.7230   -0.7810    3.5860 H   0  0  0  0  0  0  0  0  0  0  0  0
   -3.6750   -2.3930    2.7950 H   0  0  0  0  0  0  0  0  0  0  0  0
   -3.0000   -3.1270    5.0670 H   0  0  0  0  0  0  0  0  0  0  0  0
   -2.6940   -3.7220    3.4000 H   0  0  0  0  0  0  0  0  0  0  0  0
   -1.8700   -5.5910    5.1510 H   0  0  0  0  0  0  0  0  0  0  0  0
   -1.7870   -5.2000    3.3990 H   0  0  0  0  0  0  0  0  0  0  0  0
    0.7200   -5.2440    3.5640 H   0  0  0  0  0  0  0  0  0  0  0  0
    0.5600   -5.7830    5.2700 H   0  0  0  0  0  0  0  0  0  0  0  0
    1.5410   -6.3920    2.8290 H   0  0  0  0  0  0  0  0  0  0  0  0
    1.6710   -8.0740    3.4490 H   0  0  0  0  0  0  0  0  0  0  0  0
    1.9750   -6.5130    1.1580 H   0  0  0  0  0  0  0  0  0  0  0  0
    2.2840   -8.2500    0.8160 H   0  0  0  0  0  0  0  0  0  0  0  0
    0.4870   -8.2720   -0.8530 H   0  0  0  0  0  0  0  0  0  0  0  0
    0.0790   -6.5640   -0.4680 H   0  0  0  0  0  0  0  0  0  0  0  0
    1.9750   -8.3360   -2.8420 H   0  0  0  0  0  0  0  0  0  0  0  0
    0.3640   -7.5690   -2.6290 H   0  0  0  0  0  0  0  0  0  0  0  0
    2.3220   -7.3120   -5.4410 H   0  0  0  0  0  0  0  0  0  0  0  0
    0.9440   -8.1080   -4.5980 H   0  0  0  0  0  0  0  0  0  0  0  0
    0.1000   -6.8840   -6.5310 H   0  0  0  0  0  0  0  0  0  0  0  0
   -0.4320   -6.0570   -5.0220 H   0  0  0  0  0  0  0  0  0  0  0  0
   -0.2760   -4.6790   -7.5710 H   0  0  0  0  0  0  0  0  0  0  0  0
   -0.8700   -4.4450   -5.8920 H   0  0  0  0  0  0  0  0  0  0  0  0
   -1.5420   -2.3770   -6.7050 H   0  0  0  0  0  0  0  0  0  0  0  0
   -0.9140   -2.7340   -5.0610 H   0  0  0  0  0  0  0  0  0  0  0  0
    0.6480   -0.7880   -5.2830 H   0  0  0  0  0  0  0  0  0  0  0  0
   -0.1090   -0.4040   -6.8680 H   0  0  0  0  0  0  0  0  0  0  0  0
    0.0280    0.5640   -3.8480 H   0  0  0  0  0  0  0  0  0  0  0  0
   -0.0830    1.4710   -5.3960 H   0  0  0  0  0  0  0  0  0  0  0  0
   -0.8150    2.1860   -2.2250 H   0  0  0  0  0  0  0  0  0  0  0  0
    0.1560    2.7240   -3.6370 H   0  0  0  0  0  0  0  0  0  0  0  0
   -1.5140    4.4360   -4.1740 H   0  0  0  0  0  0  0  0  0  0  0  0
   -2.5670    3.8620   -2.8370 H   0  0  0  0  0  0  0  0  0  0  0  0
   -1.6130    6.6630   -2.5600 H   0  0  0  0  0  0  0  0  0  0  0  0
   -2.7760    5.3910   -2.0540 H   0  0  0  0  0  0  0  0  0  0  0  0
   -2.3490    8.0050   -0.3740 H   0  0  0  0  0  0  0  0  0  0  0  0
   -3.4740    6.7330   -0.9720 H   0  0  0  0  0  0  0  0  0  0  0  0
   -2.2440    6.7340    1.8220 H   0  0  0  0  0  0  0  0  0  0  0  0
   -3.8490    7.4460    1.4330 H   0  0  0  0  0  0  0  0  0  0  0  0
   -2.9840    5.4910    3.1420 H   0  0  0  0  0  0  0  0  0  0  0  0
   -4.7360    5.8310    2.9330 H   0  0  0  0  0  0  0  0  0  0  0  0
   -3.0170    4.1520    4.4690 H   0  0  0  0  0  0  0  0  0  0  0  0
   -4.7930    4.1570    4.7420 H   0  0  0  0  0  0  0  0  0  0  0  0
   -4.8910    1.7470    4.2320 H   0  0  0  0  0  0  0  0  0  0  0  0
   -3.1240    1.7320    3.9140 H   0  0  0  0  0  0  0  0  0  0  0  0
   -4.0800    0.0850    6.3500 H   0  0  0  0  0  0  0  0  0  0  0  0
   -2.9460    0.3370    4.9790 H   0  0  0  0  0  0  0  0  0  0  0  0
   -2.3450   -1.2960    7.4830 H   0  0  0  0  0  0  0  0  0  0  0  0
   -1.8930   -1.0600    5.7550 H   0  0  0  0  0  0  0  0  0  0  0  0
   -0.1270   -0.3560    8.1480 H   0  0  0  0  0  0  0  0  0  0  0  0
    0.0180   -1.8480    7.1500 H   0  0  0  0  0  0  0  0  0  0  0  0
    2.2130   -1.1870    6.3600 H   0  0  0  0  0  0  0  0  0  0  0  0
    0.8210   -2.0060    5.5720 H   0  0  0  0  0  0  0  0  0  0  0  0
    1.8550   -2.2880    3.2530 H   0  0  0  0  0  0  0  0  0  0  0  0
    0.2630   -1.8760    3.9840 H   0  0  0  0  0  0  0  0  0  0  0  0
    0.0990   -1.2870    1.6740 H   0  0  0  0  0  0  0  0  0  0  0  0
    0.3270    0.2580    2.5700 H   0  0  0  0  0  0  0  0  0  0  0  0
    0.9800    1.3690    1.7400 H   0  0  0  0  0  0  0  0  0  0  0  0
    2.7730    1.4420    1.6250 H   0  0  0  0  0  0  0  0  0  0  0  0
    3.1360    2.5110    0.5350 H   0  0  0  0  0  0  0  0  0  0  0  0
    3.3580    1.9270   -1.1510 H   0  0  0  0  0  0  0  0  0  0  0  0
    1.3200    3.1130   -1.8520 H   0  0  0  0  0  0  0  0  0  0  0  0
    1.0390    3.6600   -0.1640 H   0  0  0  0  0  0  0  0  0  0  0  0
    1.6040    6.2370   -1.2310 H   0  0  0  0  0  0  0  0  0  0  0  0
    1.1990    5.1670    0.1520 H   0  0  0  0  0  0  0  0  0  0  0  0
    2.3040    7.3360    1.9080 H   0  0  0  0  0  0  0  0  0  0  0  0
    1.3360    5.8680    1.5240 H   0  0  0  0  0  0  0  0  0  0  0  0
    4.2170    5.8110    2.5370 H   0  0  0  0  0  0  0  0  0  0  0  0
    2.7680    5.6450    3.5880 H   0  0  0  0  0  0  0  0  0  0  0  0
    4.5380    4.1650    3.7050 H   0  0  0  0  0  0  0  0  0  0  0  0
    3.0740    3.1960    4.0800 H   0  0  0  0  0  0  0  0  0  0  0  0
    4.9520    2.0060    4.7240 H   0  0  0  0  0  0  0  0  0  0  0  0
    3.4850    1.1380    4.1500 H   0  0  0  0  0  0  0  0  0  0  0  0
    6.3150    0.6230    3.1170 H   0  0  0  0  0  0  0  0  0  0  0  0
    5.5050   -0.3410    4.4040 H   0  0  0  0  0  0  0  0  0  0  0  0
    6.5200   -0.0070    1.7310 H   0  0  0  0  0  0  0  0  0  0  0  0
    5.9630   -1.6960    1.4760 H   0  0  0  0  0  0  0  0  0  0  0  0
    6.9890    0.0120   -0.3910 H   0  0  0  0  0  0  0  0  0  0  0  0
    6.2990   -1.6340   -0.6230 H   0  0  0  0  0  0  0  0  0  0  0  0
    6.3340   -0.5240   -2.7740 H   0  0  0  0  0  0  0  0  0  0  0  0
    4.6250   -0.6190   -2.2170 H   0  0  0  0  0  0  0  0  0  0  0  0
    6.0450    1.1620   -4.0880 H   0  0  0  0  0  0  0  0  0  0  0  0
    4.3050    0.8760   -3.7400 H   0  0  0  0  0  0  0  0  0  0  0  0
    3.2740    2.1620   -4.6460 H   0  0  0  0  0  0  0  0  0  0  0  0
    3.0260    2.6450   -2.9320 H   0  0  0  0  0  0  0  0  0  0  0  0
    3.5580    5.0150   -3.5870 H   0  0  0  0  0  0  0  0  0  0  0  0
    3.6180    4.4830   -5.3010 H   0  0  0  0  0  0  0  0  0  0  0  0
    0.9990    5.6390   -5.8040 H   0  0  0  0  0  0  0  0  0  0  0  0
    2.4770    4.7390   -6.2870 H   0  0  0  0  0  0  0  0  0  0  0  0
    0.9910    3.0190   -8.2060 H   0  0  0  0  0  0  0  0  0  0  0  0
    2.4560    3.6630   -7.3870 H   0  0  0  0  0  0  0  0  0  0  0  0
    2.4480    1.7150   -5.8530 H   0  0  0  0  0  0  0  0  0  0  0  0
    0.9940    1.0690   -6.6900 H   0  0  0  0  0  0  0  0  0  0  0  0
    4.6270    0.5070   -7.2720 H   0  0  0  0  0  0  0  0  0  0  0  0
    3.3980    0.3910   -5.9650 H   0  0  0  0  0  0  0  0  0  0  0  0
    5.2600   -1.7790   -7.1590 H   0  0  0  0  0  0  0  0  0  0  0  0
    4.3990   -1.3440   -5.6430 H   0  0  0  0  0  0  0  0  0  0  0  0
    2.8490   -3.2560   -5.9930 H   0  0  0  0  0  0  0  0  0  0  0  0
    3.7520   -3.7000   -7.4820 H   0  0  0  0  0  0  0  0  0  0  0  0
    3.4390   -3.5690   -4.1980 H   0  0  0  0  0  0  0  0  0  0  0  0
    3.3310   -5.1970   -4.9540 H   0  0  0  0  0  0  0  0  0  0  0  0
    5.8030   -3.3410   -2.7280 H   0  0  0  0  0  0  0  0  0  0  0  0
    4.0070   -3.2990   -2.7540 H   0  0  0  0  0  0  0  0  0  0  0  0
    3.9260   -5.2110   -1.2020 H   0  0  0  0  0  0  0  0  0  0  0  0
    5.7190   -5.2980   -1.1960 H   0  0  0  0  0  0  0  0  0  0  0  0
    3.7890   -5.1970    0.4800 H   0  0  0  0  0  0  0  0  0  0  0  0
    5.0120   -4.4760    1.5800 H   0  0  0  0  0  0  0  0  0  0  0  0
    2.4790   -5.2640    1.3930 H   0  0  0  0  0  0  0  0  0  0  0  0
    2.0960   -4.1710    2.7670 H   0  0  0  0  0  0  0  0  0  0  0  0
    0.7390   -2.7520    1.2680 H   0  0  0  0  0  0  0  0  0  0  0  0
    1.1320   -3.8300   -0.1150 H   0  0  0  0  0  0  0  0  0  0  0  0
   -1.3480   -3.0360    1.1840 H   0  0  0  0  0  0  0  0  0  0  0  0
   -1.0560   -3.9550   -0.3310 H   0  0  0  0  0  0  0  0  0  0  0  0
   -3.0740   -3.1100    0.2150 H   0  0  0  0  0  0  0  0  0  0  0  0
   -3.6100   -4.6450   -0.5500 H   0  0  0  0  0  0  0  0  0  0  0  0
   -4.9320   -5.2150    1.4240 H   0  0  0  0  0  0  0  0  0  0  0  0
   -4.3220   -3.7640    2.2890 H   0  0  0  0  0  0  0  0  0  0  0  0
   -7.1250   -3.4060    2.0960 H   0  0  0  0  0  0  0  0  0  0  0  0
   -5.5470   -2.7720    2.6740 H   0  0  0  0  0  0  0  0  0  0  0  0
   -7.6850   -1.2950    3.2130 H   0  0  0  0  0  0  0  0  0  0  0  0
   -5.9110   -1.0120    3.3170 H   0  0  0  0  0  0  0  0  0  0  0  0
   -7.8460    0.7490    1.7400 H   0  0  0  0  0  0  0  0  0  0  0  0
   -7.2960    1.0920    3.4180 H   0  0  0  0  0  0  0  0  0  0  0  0
   -7.3630    1.8300    0.7320 H   0  0  0  0  0  0  0  0  0  0  0  0
   -6.1320    3.0590    1.1800 H   0  0  0  0  0  0  0  0  0  0  0  0
   -5.3180    3.2500   -1.5390 H   0  0  0  0  0  0  0  0  0  0  0  0
   -5.1030    3.6350    0.2060 H   0  0  0  0  0  0  0  0  0  0  0  0
   -3.2530    1.8030   -1.3910 H   0  0  0  0  0  0  0  0  0  0  0  0
   -2.9500    3.5530   -1.1060 H   0  0  0  0  0  0  0  0  0  0  0  0
   -0.9790    1.6830    0.8370 H   0  0  0  0  0  0  0  0  0  0  0  0
   -1.2690    2.5990   -0.6800 H   0  0  0  0  0  0  0  0  0  0  0  0
   -1.5110    3.7700    3.1460 H   0  0  0  0  0  0  0  0  0  0  0  0
   -1.8270    5.1970    3.8010 H   0  0  0  0  0  0  0  0  0  0  0  0
   -0.8890    7.2060    2.7370 H   0  0  0  0  0  0  0  0  0  0  0  0
   -1.5390    7.5870    4.3780 H   0  0  0  0  0  0  0  0  0  0  0  0
    0.5490    7.5880    5.1870 H   0  0  0  0  0  0  0  0  0  0  0  0
    0.2460    5.6110    5.9790 H   0  0  0  0  0  0  0  0  0  0  0  0
   -1.6230    5.9570    7.2830 H   0  0  0  0  0  0  0  0  0  0  0  0
   -1.8640    3.4960    5.4930 H   0  0  0  0  0  0  0  0  0  0  0  0
   -0.6280    4.4460    7.8170 H   0  0  0  0  0  0  0  0  0  0  0  0
    0.1180    1.9910    6.0150 H   0  0  0  0  0  0  0  0  0  0  0  0
    1.6060    3.5680    6.6540 H   0  0  0  0  0  0  0  0  0  0  0  0
    1.0490    2.2550    3.6270 H   0  0  0  0  0  0  0  0  0  0  0  0
   -1.1030    1.1570    4.7640 H   0  0  0  0  0  0  0  0  0  0  0  0
  1  2  1  0  0  0  0
  1143  1  0  0  0  0
  1144  1  0  0  0  0
  2  3  1  0  0  0  0
  2  5  1  0  0  0  0
  2  7  1  0  0  0  0
  3  4  1  0  0  0  0
  3145  1  0  0  0  0
  3146  1  0  0  0  0
  4147  1  0  0  0  0
  5  6  1  0  0  0  0
  5148  1  0  0  0  0
  5149  1  0  0  0  0
  6150  1  0  0  0  0
  7  8  1  0  0  0  0
  7151  1  0  0  0  0
  7152  1  0  0  0  0
  8  9  1  0  0  0  0
  9 10  1  0  0  0  0
  9153  1  0  0  0  0
  9154  1  0  0  0  0
 10 11  1  0  0  0  0
 10155  1  0  0  0  0
 10156  1  0  0  0  0
 11 12  1  0  0  0  0
 12 13  1  0  0  0  0
 12157  1  0  0  0  0
 12158  1  0  0  0  0
 13 14  1  0  0  0  0
 14 15  1  0  0  0  0
 14159  1  0  0  0  0
 14160  1  0  0  0  0
 15 16  1  0  0  0  0
 15161  1  0  0  0  0
 15162  1  0  0  0  0
 16 17  1  0  0  0  0
 17 18  1  0  0  0  0
 17163  1  0  0  0  0
 17164  1  0  0  0  0
 18 19  1  0  0  0  0
 19 20  1  0  0  0  0
 19165  1  0  0  0  0
 19166  1  0  0  0  0
 20 21  1  0  0  0  0
 20167  1  0  0  0  0
 20168  1  0  0  0  0
 21 22  1  0  0  0  0
 22 23  1  0  0  0  0
 22169  1  0  0  0  0
 22170  1  0  0  0  0
 23 24  1  0  0  0  0
 24 25  1  0  0  0  0
 24171  1  0  0  0  0
 24172  1  0  0  0  0
 25 26  1  0  0  0  0
 25173  1  0  0  0  0
 25174  1  0  0  0  0
 26 27  1  0  0  0  0
 27 28  1  0  0  0  0
 27175  1  0  0  0  0
 27176  1  0  0  0  0
 28 29  1  0  0  0  0
 29 30  1  0  0  0  0
 29177  1  0  0  0  0
 29178  1  0  0  0  0
 30 31  1  0  0  0  0
 30179  1  0  0  0  0
 30180  1  0  0  0  0
 31 32  1  0  0  0  0
 32 33  1  0  0  0  0
 32181  1  0  0  0  0
 32182  1  0  0  0  0
 33 34  1  0  0  0  0
 34 35  1  0  0  0  0
 34183  1  0  0  0  0
 34184  1  0  0  0  0
 35 36  1  0  0  0  0
 35185  1  0  0  0  0
 35186  1  0  0  0  0
 36 37  1  0  0  0  0
 37 38  1  0  0  0  0
 37187  1  0  0  0  0
 37188  1  0  0  0  0
 38 39  1  0  0  0  0
 39 40  1  0  0  0  0
 39189  1  0  0  0  0
 39190  1  0  0  0  0
 40 41  1  0  0  0  0
 40191  1  0  0  0  0
 40192  1  0  0  0  0
 41 42  1  0  0  0  0
 42 43  1  0  0  0  0
 42193  1  0  0  0  0
 42194  1  0  0  0  0
 43 44  1  0  0  0  0
 44 45  1  0  0  0  0
 44195  1  0  0  0  0
 44196  1  0  0  0  0
 45 46  1  0  0  0  0
 45197  1  0  0  0  0
 45198  1  0  0  0  0
 46 47  1  0  0  0  0
 47 48  1  0  0  0  0
 47199  1  0  0  0  0
 47200  1  0  0  0  0
 48 49  1  0  0  0  0
 49 50  1  0  0  0  0
 49201  1  0  0  0  0
 49202  1  0  0  0  0
 50 51  1  0  0  0  0
 50203  1  0  0  0  0
 50204  1  0  0  0  0
 51 52  1  0  0  0  0
 52 53  1  0  0  0  0
 52205  1  0  0  0  0
 52206  1  0  0  0  0
 53 54  1  0  0  0  0
 54 55  1  0  0  0  0
 54207  1  0  0  0  0
 54208  1  0  0  0  0
 55 56  1  0  0  0  0
 55209  1  0  0  0  0
 55210  1  0  0  0  0
 56 57  1  0  0  0  0
 57 58  1  0  0  0  0
 57211  1  0  0  0  0
 57212  1  0  0  0  0
 58 59  1  0  0  0  0
 59 60  1  0  0  0  0
 59213  1  0  0  0  0
 59214  1  0  0  0  0
 60 61  1  0  0  0  0
 60215  1  0  0  0  0
 60216  1  0  0  0  0
 61 62  1  0  0  0  0
 62 63  1  0  0  0  0
 62217  1  0  0  0  0
 62218  1  0  0  0  0
 63 64  1  0  0  0  0
 64 65  1  0  0  0  0
 64219  1  0  0  0  0
 64220  1  0  0  0  0
 65 66  1  0  0  0  0
 65221  1  0  0  0  0
 65222  1  0  0  0  0
 66 67  1  0  0  0  0
 67 68  1  0  0  0  0
 67223  1  0  0  0  0
 67224  1  0  0  0  0
 68 69  1  0  0  0  0
 69 70  1  0  0  0  0
 69225  1  0  0  0  0
 69226  1  0  0  0  0
 70 71  1  0  0  0  0
 70227  1  0  0  0  0
 70228  1  0  0  0  0
 71 72  1  0  0  0  0
 72 73  1  0  0  0  0
 72229  1  0  0  0  0
 72230  1  0  0  0  0
 73 74  1  0  0  0  0
 74 75  1  0  0  0  0
 74231  1  0  0  0  0
 74232  1  0  0  0  0
 75 76  1  0  0  0  0
 75233  1  0  0  0  0
 75234  1  0  0  0  0
 76 77  1  0  0  0  0
 77 78  1  0  0  0  0
 77235  1  0  0  0  0
 77236  1  0  0  0  0
 78 79  1  0  0  0  0
 79 80  1  0  0  0  0
 79237  1  0  0  0  0
 79238  1  0  0  0  0
 80 81  1  0  0  0  0
 80239  1  0  0  0  0
 80240  1  0  0  0  0
 81 82  1  0  0  0  0
 82 83  1  0  0  0  0
 82241  1  0  0  0  0
 82242  1  0  0  0  0
 83 84  1  0  0  0  0
 84 85  1  0  0  0  0
 84243  1  0  0  0  0
 84244  1  0  0  0  0
 85 86  1  0  0  0  0
 85245  1  0  0  0  0
 85246  1  0  0  0  0
 86 87  1  0  0  0  0
 87 88  1  0  0  0  0
 87247  1  0  0  0  0
 87248  1  0  0  0  0
 88 89  1  0  0  0  0
 89 90  1  0  0  0  0
 89249  1  0  0  0  0
 89250  1  0  0  0  0
 90 91  1  0  0  0  0
 90251  1  0  0  0  0
 90252  1  0  0  0  0
 91 92  1  0  0  0  0
 92 93  1  0  0  0  0
 92253  1  0  0  0  0
 92254  1  0  0  0  0
 93 94  1  0  0  0  0
 94 95  1  0  0  0  0
 94255  1  0  0  0  0
 94256  1  0  0  0  0
 95 96  1  0  0  0  0
 95257  1  0  0  0  0
 95258  1  0  0  0  0
 96 97  1  0  0  0  0
 97 98  1  0  0  0  0
 97259  1  0  0  0  0
 97260  1  0  0  0  0
 98 99  1  0  0  0  0
 99100  1  0  0  0  0
 99261  1  0  0  0  0
 99262  1  0  0  0  0
100101  1  0  0  0  0
100263  1  0  0  0  0
100264  1  0  0  0  0
101102  1  0  0  0  0
102103  1  0  0  0  0
102265  1  0  0  0  0
102266  1  0  0  0  0
103104  1  0  0  0  0
104105  1  0  0  0  0
104267  1  0  0  0  0
104268  1  0  0  0  0
105106  1  0  0  0  0
105269  1  0  0  0  0
105270  1  0  0  0  0
106107  1  0  0  0  0
107108  1  0  0  0  0
107271  1  0  0  0  0
107272  1  0  0  0  0
108109  1  0  0  0  0
109110  1  0  0  0  0
109273  1  0  0  0  0
109274  1  0  0  0  0
110111  1  0  0  0  0
110275  1  0  0  0  0
110276  1  0  0  0  0
111112  1  0  0  0  0
112113  1  0  0  0  0
112277  1  0  0  0  0
112278  1  0  0  0  0
113114  1  0  0  0  0
114115  1  0  0  0  0
114279  1  0  0  0  0
114280  1  0  0  0  0
115116  1  0  0  0  0
115281  1  0  0  0  0
115282  1  0  0  0  0
116117  1  0  0  0  0
117118  1  0  0  0  0
117283  1  0  0  0  0
117284  1  0  0  0  0
118119  1  0  0  0  0
119120  1  0  0  0  0
119285  1  0  0  0  0
119286  1  0  0  0  0
120121  1  0  0  0  0
120287  1  0  0  0  0
120288  1  0  0  0  0
121122  1  0  0  0  0
122123  1  0  0  0  0
122289  1  0  0  0  0
122290  1  0  0  0  0
123124  1  0  0  0  0
124125  1  0  0  0  0
124291  1  0  0  0  0
124292  1  0  0  0  0
125126  1  0  0  0  0
125293  1  0  0  0  0
125294  1  0  0  0  0
126127  1  0  0  0  0
127128  1  0  0  0  0
127295  1  0  0  0  0
127296  1  0  0  0  0
128129  1  0  0  0  0
129130  1  0  0  0  0
130131  1  0  0  0  0
130141  1  0  0  0  0
130297  1  1  0  0  0
131132  1  0  0  0  0
132133  1  0  0  0  0
132135  1  0  0  0  0
132298  1  6  0  0  0
133134  1  0  0  0  0
133299  1  0  0  0  0
133300  1  0  0  0  0
134301  1  0  0  0  0
135136  1  0  0  0  0
135137  1  0  0  0  0
135302  1  1  0  0  0
136303  1  0  0  0  0
137138  1  0  0  0  0
137139  1  0  0  0  0
137304  1  6  0  0  0
138305  1  0  0  0  0
139140  1  0  0  0  0
139141  1  0  0  0  0
139306  1  1  0  0  0
140307  1  0  0  0  0
141142  1  0  0  0  0
141308  1  6  0  0  0
142309  1  0  0  0  0
M  END
