1arm_peg24_glc.pdb
  Mrv15b2301182601272D          

309309  0  0  0  0            999 V2000
  -46.1247    0.5048    0.0000 N   0  0  0  0  0  0  0  0  0  0  0  0
  -45.7122   -0.2096    0.0000 C   0  0  0  0  0  0  0  0  0  0  0  0
  -46.4267   -0.6221    0.0000 C   0  0  0  0  0  0  0  0  0  0  0  0
  -47.1411   -0.2096    0.0000 O   0  0  0  0  0  0  0  0  0  0  0  0
  -45.2997   -0.9241    0.0000 C   0  0  0  0  0  0  0  0  0  0  0  0
  -45.7122   -1.6386    0.0000 O   0  0  0  0  0  0  0  0  0  0  0  0
  -44.9977    0.2029    0.0000 C   0  0  0  0  0  0  0  0  0  0  0  0
  -44.2833   -0.2096    0.0000 O   0  0  0  0  0  0  0  0  0  0  0  0
  -43.5688    0.2029    0.0000 C   0  0  0  0  0  0  0  0  0  0  0  0
  -42.8543   -0.2096    0.0000 C   0  0  0  0  0  0  0  0  0  0  0  0
  -42.1399    0.2029    0.0000 O   0  0  0  0  0  0  0  0  0  0  0  0
  -41.4254   -0.2096    0.0000 C   0  0  0  0  0  0  0  0  0  0  0  0
  -40.7109    0.2029    0.0000 O   0  0  0  0  0  0  0  0  0  0  0  0
  -39.9964   -0.2096    0.0000 C   0  0  0  0  0  0  0  0  0  0  0  0
  -39.2820    0.2029    0.0000 C   0  0  0  0  0  0  0  0  0  0  0  0
  -38.5675   -0.2096    0.0000 O   0  0  0  0  0  0  0  0  0  0  0  0
  -37.8530    0.2029    0.0000 C   0  0  0  0  0  0  0  0  0  0  0  0
  -37.1386   -0.2096    0.0000 O   0  0  0  0  0  0  0  0  0  0  0  0
  -36.4241    0.2029    0.0000 C   0  0  0  0  0  0  0  0  0  0  0  0
  -35.7096   -0.2096    0.0000 C   0  0  0  0  0  0  0  0  0  0  0  0
  -34.9951    0.2029    0.0000 O   0  0  0  0  0  0  0  0  0  0  0  0
  -34.2807   -0.2096    0.0000 C   0  0  0  0  0  0  0  0  0  0  0  0
  -33.5662    0.2029    0.0000 O   0  0  0  0  0  0  0  0  0  0  0  0
  -32.8517   -0.2096    0.0000 C   0  0  0  0  0  0  0  0  0  0  0  0
  -32.1373    0.2029    0.0000 C   0  0  0  0  0  0  0  0  0  0  0  0
  -31.4228   -0.2096    0.0000 O   0  0  0  0  0  0  0  0  0  0  0  0
  -30.7083    0.2029    0.0000 C   0  0  0  0  0  0  0  0  0  0  0  0
  -29.9938   -0.2096    0.0000 O   0  0  0  0  0  0  0  0  0  0  0  0
  -29.2794    0.2029    0.0000 C   0  0  0  0  0  0  0  0  0  0  0  0
  -28.5649   -0.2096    0.0000 C   0  0  0  0  0  0  0  0  0  0  0  0
  -27.8504    0.2029    0.0000 O   0  0  0  0  0  0  0  0  0  0  0  0
  -27.1360   -0.2096    0.0000 C   0  0  0  0  0  0  0  0  0  0  0  0
  -26.4215    0.2029    0.0000 O   0  0  0  0  0  0  0  0  0  0  0  0
  -25.7070   -0.2096    0.0000 C   0  0  0  0  0  0  0  0  0  0  0  0
  -24.9925    0.2029    0.0000 C   0  0  0  0  0  0  0  0  0  0  0  0
  -24.2781   -0.2096    0.0000 O   0  0  0  0  0  0  0  0  0  0  0  0
  -23.5636    0.2029    0.0000 C   0  0  0  0  0  0  0  0  0  0  0  0
  -22.8491   -0.2096    0.0000 O   0  0  0  0  0  0  0  0  0  0  0  0
  -22.1347    0.2029    0.0000 C   0  0  0  0  0  0  0  0  0  0  0  0
  -21.4202   -0.2096    0.0000 C   0  0  0  0  0  0  0  0  0  0  0  0
  -20.7057    0.2029    0.0000 O   0  0  0  0  0  0  0  0  0  0  0  0
  -19.9913   -0.2096    0.0000 C   0  0  0  0  0  0  0  0  0  0  0  0
  -19.2768    0.2029    0.0000 O   0  0  0  0  0  0  0  0  0  0  0  0
  -18.5623   -0.2096    0.0000 C   0  0  0  0  0  0  0  0  0  0  0  0
  -17.8478    0.2029    0.0000 C   0  0  0  0  0  0  0  0  0  0  0  0
  -17.1334   -0.2096    0.0000 O   0  0  0  0  0  0  0  0  0  0  0  0
  -16.4189    0.2029    0.0000 C   0  0  0  0  0  0  0  0  0  0  0  0
  -15.7044   -0.2096    0.0000 O   0  0  0  0  0  0  0  0  0  0  0  0
  -14.9900    0.2029    0.0000 C   0  0  0  0  0  0  0  0  0  0  0  0
  -14.2755   -0.2096    0.0000 C   0  0  0  0  0  0  0  0  0  0  0  0
  -13.5610    0.2029    0.0000 O   0  0  0  0  0  0  0  0  0  0  0  0
  -12.8465   -0.2096    0.0000 C   0  0  0  0  0  0  0  0  0  0  0  0
  -12.1321    0.2029    0.0000 O   0  0  0  0  0  0  0  0  0  0  0  0
  -11.4176   -0.2096    0.0000 C   0  0  0  0  0  0  0  0  0  0  0  0
  -10.7031    0.2029    0.0000 C   0  0  0  0  0  0  0  0  0  0  0  0
   -9.9887   -0.2096    0.0000 O   0  0  0  0  0  0  0  0  0  0  0  0
   -9.2742    0.2029    0.0000 C   0  0  0  0  0  0  0  0  0  0  0  0
   -8.5597   -0.2096    0.0000 O   0  0  0  0  0  0  0  0  0  0  0  0
   -7.8452    0.2029    0.0000 C   0  0  0  0  0  0  0  0  0  0  0  0
   -7.1308   -0.2096    0.0000 C   0  0  0  0  0  0  0  0  0  0  0  0
   -6.4163    0.2029    0.0000 O   0  0  0  0  0  0  0  0  0  0  0  0
   -5.7018   -0.2096    0.0000 C   0  0  0  0  0  0  0  0  0  0  0  0
   -4.9874    0.2029    0.0000 O   0  0  0  0  0  0  0  0  0  0  0  0
   -4.2729   -0.2096    0.0000 C   0  0  0  0  0  0  0  0  0  0  0  0
   -3.5584    0.2029    0.0000 C   0  0  0  0  0  0  0  0  0  0  0  0
   -2.8439   -0.2096    0.0000 O   0  0  0  0  0  0  0  0  0  0  0  0
   -2.1295    0.2029    0.0000 C   0  0  0  0  0  0  0  0  0  0  0  0
   -1.4150   -0.2096    0.0000 O   0  0  0  0  0  0  0  0  0  0  0  0
   -0.7005    0.2029    0.0000 C   0  0  0  0  0  0  0  0  0  0  0  0
    0.0139   -0.2096    0.0000 C   0  0  0  0  0  0  0  0  0  0  0  0
    0.7284    0.2029    0.0000 O   0  0  0  0  0  0  0  0  0  0  0  0
    1.4429   -0.2096    0.0000 C   0  0  0  0  0  0  0  0  0  0  0  0
    2.1573    0.2029    0.0000 O   0  0  0  0  0  0  0  0  0  0  0  0
    2.8718   -0.2096    0.0000 C   0  0  0  0  0  0  0  0  0  0  0  0
    3.5863    0.2029    0.0000 C   0  0  0  0  0  0  0  0  0  0  0  0
    4.3008   -0.2096    0.0000 O   0  0  0  0  0  0  0  0  0  0  0  0
    5.0152    0.2029    0.0000 C   0  0  0  0  0  0  0  0  0  0  0  0
    5.7297   -0.2096    0.0000 O   0  0  0  0  0  0  0  0  0  0  0  0
    6.4442    0.2029    0.0000 C   0  0  0  0  0  0  0  0  0  0  0  0
    7.1586   -0.2096    0.0000 C   0  0  0  0  0  0  0  0  0  0  0  0
    7.8731    0.2029    0.0000 O   0  0  0  0  0  0  0  0  0  0  0  0
    8.5876   -0.2096    0.0000 C   0  0  0  0  0  0  0  0  0  0  0  0
    9.3021    0.2029    0.0000 O   0  0  0  0  0  0  0  0  0  0  0  0
   10.0165   -0.2096    0.0000 C   0  0  0  0  0  0  0  0  0  0  0  0
   10.7310    0.2029    0.0000 C   0  0  0  0  0  0  0  0  0  0  0  0
   11.4455   -0.2096    0.0000 O   0  0  0  0  0  0  0  0  0  0  0  0
   12.1599    0.2029    0.0000 C   0  0  0  0  0  0  0  0  0  0  0  0
   12.8744   -0.2096    0.0000 O   0  0  0  0  0  0  0  0  0  0  0  0
   13.5889    0.2029    0.0000 C   0  0  0  0  0  0  0  0  0  0  0  0
   14.3034   -0.2096    0.0000 C   0  0  0  0  0  0  0  0  0  0  0  0
   15.0178    0.2029    0.0000 O   0  0  0  0  0  0  0  0  0  0  0  0
   15.7323   -0.2096    0.0000 C   0  0  0  0  0  0  0  0  0  0  0  0
   16.4468    0.2029    0.0000 O   0  0  0  0  0  0  0  0  0  0  0  0
   17.1612   -0.2096    0.0000 C   0  0  0  0  0  0  0  0  0  0  0  0
   17.8757    0.2029    0.0000 C   0  0  0  0  0  0  0  0  0  0  0  0
   18.5902   -0.2096    0.0000 O   0  0  0  0  0  0  0  0  0  0  0  0
   19.3047    0.2029    0.0000 C   0  0  0  0  0  0  0  0  0  0  0  0
   20.0191   -0.2096    0.0000 O   0  0  0  0  0  0  0  0  0  0  0  0
   20.7336    0.2029    0.0000 C   0  0  0  0  0  0  0  0  0  0  0  0
   21.4481   -0.2096    0.0000 C   0  0  0  0  0  0  0  0  0  0  0  0
   22.1625    0.2029    0.0000 O   0  0  0  0  0  0  0  0  0  0  0  0
   22.8770   -0.2096    0.0000 C   0  0  0  0  0  0  0  0  0  0  0  0
   23.5915    0.2029    0.0000 O   0  0  0  0  0  0  0  0  0  0  0  0
   24.3059   -0.2096    0.0000 C   0  0  0  0  0  0  0  0  0  0  0  0
   25.0204    0.2029    0.0000 C   0  0  0  0  0  0  0  0  0  0  0  0
   25.7349   -0.2096    0.0000 O   0  0  0  0  0  0  0  0  0  0  0  0
   26.4494    0.2029    0.0000 C   0  0  0  0  0  0  0  0  0  0  0  0
   27.1638   -0.2096    0.0000 O   0  0  0  0  0  0  0  0  0  0  0  0
   27.8783    0.2029    0.0000 C   0  0  0  0  0  0  0  0  0  0  0  0
   28.5928   -0.2096    0.0000 C   0  0  0  0  0  0  0  0  0  0  0  0
   29.3072    0.2029    0.0000 O   0  0  0  0  0  0  0  0  0  0  0  0
   30.0217   -0.2096    0.0000 C   0  0  0  0  0  0  0  0  0  0  0  0
   30.7362    0.2029    0.0000 O   0  0  0  0  0  0  0  0  0  0  0  0
   31.4507   -0.2096    0.0000 C   0  0  0  0  0  0  0  0  0  0  0  0
   32.1651    0.2029    0.0000 C   0  0  0  0  0  0  0  0  0  0  0  0
   32.8796   -0.2096    0.0000 O   0  0  0  0  0  0  0  0  0  0  0  0
   33.5941    0.2029    0.0000 C   0  0  0  0  0  0  0  0  0  0  0  0
   34.3085   -0.2096    0.0000 O   0  0  0  0  0  0  0  0  0  0  0  0
   35.0230    0.2029    0.0000 C   0  0  0  0  0  0  0  0  0  0  0  0
   35.7375   -0.2096    0.0000 C   0  0  0  0  0  0  0  0  0  0  0  0
   36.4520    0.2029    0.0000 O   0  0  0  0  0  0  0  0  0  0  0  0
   37.1664   -0.2096    0.0000 C   0  0  0  0  0  0  0  0  0  0  0  0
   37.8809    0.2029    0.0000 O   0  0  0  0  0  0  0  0  0  0  0  0
   38.5954   -0.2096    0.0000 C   0  0  0  0  0  0  0  0  0  0  0  0
   39.3098    0.2029    0.0000 C   0  0  0  0  0  0  0  0  0  0  0  0
   40.0243   -0.2096    0.0000 O   0  0  0  0  0  0  0  0  0  0  0  0
   40.7388    0.2029    0.0000 C   0  0  0  0  0  0  0  0  0  0  0  0
   41.4533   -0.2096    0.0000 O   0  0  0  0  0  0  0  0  0  0  0  0
   42.1677    0.2029    0.0000 O   0  0  0  0  0  0  0  0  0  0  0  0
   42.8822   -0.2096    0.0000 C   0  0  2  0  0  0  0  0  0  0  0  0
   43.5638    0.2551    0.0000 O   0  0  0  0  0  0  0  0  0  0  0  0
   44.3522    0.0119    0.0000 C   0  0  2  0  0  0  0  0  0  0  0  0
   44.9133    0.6167    0.0000 C   0  0  0  0  0  0  0  0  0  0  0  0
   44.6702    1.4050    0.0000 O   0  0  0  0  0  0  0  0  0  0  0  0
   44.6536   -0.7560    0.0000 C   0  0  1  0  0  0  0  0  0  0  0  0
   45.4763   -0.8177    0.0000 O   0  0  0  0  0  0  0  0  0  0  0  0
   44.2411   -1.4705    0.0000 C   0  0  2  0  0  0  0  0  0  0  0  0
   44.7058   -2.1522    0.0000 O   0  0  0  0  0  0  0  0  0  0  0  0
   43.4253   -1.5935    0.0000 C   0  0  2  0  0  0  0  0  0  0  0  0
   43.1821   -2.3818    0.0000 O   0  0  0  0  0  0  0  0  0  0  0  0
   42.8205   -1.0323    0.0000 C   0  0  1  0  0  0  0  0  0  0  0  0
   42.0526   -1.3337    0.0000 O   0  0  0  0  0  0  0  0  0  0  0  0
  -45.7122    1.2193    0.0000 H   0  0  0  0  0  0  0  0  0  0  0  0
  -46.9497    0.5048    0.0000 H   0  0  0  0  0  0  0  0  0  0  0  0
  -46.7969   -1.3594    0.0000 H   0  0  0  0  0  0  0  0  0  0  0  0
  -46.0564   -1.3594    0.0000 H   0  0  0  0  0  0  0  0  0  0  0  0
  -47.9033   -0.5254    0.0000 H   0  0  0  0  0  0  0  0  0  0  0  0
  -44.5625   -1.2944    0.0000 H   0  0  0  0  0  0  0  0  0  0  0  0
  -44.5625   -0.5538    0.0000 H   0  0  0  0  0  0  0  0  0  0  0  0
  -45.5622   -2.4498    0.0000 H   0  0  0  0  0  0  0  0  0  0  0  0
  -44.6275    0.9401    0.0000 H   0  0  0  0  0  0  0  0  0  0  0  0
  -45.3680    0.9401    0.0000 H   0  0  0  0  0  0  0  0  0  0  0  0
  -43.1985    0.9401    0.0000 H   0  0  0  0  0  0  0  0  0  0  0  0
  -43.9391    0.9401    0.0000 H   0  0  0  0  0  0  0  0  0  0  0  0
  -43.2246   -0.9469    0.0000 H   0  0  0  0  0  0  0  0  0  0  0  0
  -42.4841   -0.9469    0.0000 H   0  0  0  0  0  0  0  0  0  0  0  0
  -41.7956   -0.9469    0.0000 H   0  0  0  0  0  0  0  0  0  0  0  0
  -41.0551   -0.9469    0.0000 H   0  0  0  0  0  0  0  0  0  0  0  0
  -40.3667   -0.9469    0.0000 H   0  0  0  0  0  0  0  0  0  0  0  0
  -39.6262   -0.9469    0.0000 H   0  0  0  0  0  0  0  0  0  0  0  0
  -38.9117    0.9401    0.0000 H   0  0  0  0  0  0  0  0  0  0  0  0
  -39.6522    0.9401    0.0000 H   0  0  0  0  0  0  0  0  0  0  0  0
  -37.4828    0.9401    0.0000 H   0  0  0  0  0  0  0  0  0  0  0  0
  -38.2233    0.9401    0.0000 H   0  0  0  0  0  0  0  0  0  0  0  0
  -36.0538    0.9401    0.0000 H   0  0  0  0  0  0  0  0  0  0  0  0
  -36.7943    0.9401    0.0000 H   0  0  0  0  0  0  0  0  0  0  0  0
  -36.0799   -0.9469    0.0000 H   0  0  0  0  0  0  0  0  0  0  0  0
  -35.3394   -0.9469    0.0000 H   0  0  0  0  0  0  0  0  0  0  0  0
  -34.6509   -0.9469    0.0000 H   0  0  0  0  0  0  0  0  0  0  0  0
  -33.9104   -0.9469    0.0000 H   0  0  0  0  0  0  0  0  0  0  0  0
  -33.2220   -0.9469    0.0000 H   0  0  0  0  0  0  0  0  0  0  0  0
  -32.4815   -0.9469    0.0000 H   0  0  0  0  0  0  0  0  0  0  0  0
  -31.7670    0.9401    0.0000 H   0  0  0  0  0  0  0  0  0  0  0  0
  -32.5075    0.9401    0.0000 H   0  0  0  0  0  0  0  0  0  0  0  0
  -30.3381    0.9401    0.0000 H   0  0  0  0  0  0  0  0  0  0  0  0
  -31.0786    0.9401    0.0000 H   0  0  0  0  0  0  0  0  0  0  0  0
  -28.9091    0.9401    0.0000 H   0  0  0  0  0  0  0  0  0  0  0  0
  -29.6496    0.9401    0.0000 H   0  0  0  0  0  0  0  0  0  0  0  0
  -28.9352   -0.9469    0.0000 H   0  0  0  0  0  0  0  0  0  0  0  0
  -28.1946   -0.9469    0.0000 H   0  0  0  0  0  0  0  0  0  0  0  0
  -27.5062   -0.9469    0.0000 H   0  0  0  0  0  0  0  0  0  0  0  0
  -26.7657   -0.9469    0.0000 H   0  0  0  0  0  0  0  0  0  0  0  0
  -26.0773   -0.9469    0.0000 H   0  0  0  0  0  0  0  0  0  0  0  0
  -25.3368   -0.9469    0.0000 H   0  0  0  0  0  0  0  0  0  0  0  0
  -24.6223    0.9401    0.0000 H   0  0  0  0  0  0  0  0  0  0  0  0
  -25.3628    0.9401    0.0000 H   0  0  0  0  0  0  0  0  0  0  0  0
  -23.1933    0.9401    0.0000 H   0  0  0  0  0  0  0  0  0  0  0  0
  -23.9339    0.9401    0.0000 H   0  0  0  0  0  0  0  0  0  0  0  0
  -21.7644    0.9401    0.0000 H   0  0  0  0  0  0  0  0  0  0  0  0
  -22.5049    0.9401    0.0000 H   0  0  0  0  0  0  0  0  0  0  0  0
  -21.7905   -0.9469    0.0000 H   0  0  0  0  0  0  0  0  0  0  0  0
  -21.0499   -0.9469    0.0000 H   0  0  0  0  0  0  0  0  0  0  0  0
  -20.3615   -0.9469    0.0000 H   0  0  0  0  0  0  0  0  0  0  0  0
  -19.6210   -0.9469    0.0000 H   0  0  0  0  0  0  0  0  0  0  0  0
  -18.9326   -0.9469    0.0000 H   0  0  0  0  0  0  0  0  0  0  0  0
  -18.1920   -0.9469    0.0000 H   0  0  0  0  0  0  0  0  0  0  0  0
  -17.4776    0.9401    0.0000 H   0  0  0  0  0  0  0  0  0  0  0  0
  -18.2181    0.9401    0.0000 H   0  0  0  0  0  0  0  0  0  0  0  0
  -16.0486    0.9401    0.0000 H   0  0  0  0  0  0  0  0  0  0  0  0
  -16.7892    0.9401    0.0000 H   0  0  0  0  0  0  0  0  0  0  0  0
  -14.6197    0.9401    0.0000 H   0  0  0  0  0  0  0  0  0  0  0  0
  -15.3602    0.9401    0.0000 H   0  0  0  0  0  0  0  0  0  0  0  0
  -14.6457   -0.9469    0.0000 H   0  0  0  0  0  0  0  0  0  0  0  0
  -13.9052   -0.9469    0.0000 H   0  0  0  0  0  0  0  0  0  0  0  0
  -13.2168   -0.9469    0.0000 H   0  0  0  0  0  0  0  0  0  0  0  0
  -12.4763   -0.9469    0.0000 H   0  0  0  0  0  0  0  0  0  0  0  0
  -11.7879   -0.9469    0.0000 H   0  0  0  0  0  0  0  0  0  0  0  0
  -11.0473   -0.9469    0.0000 H   0  0  0  0  0  0  0  0  0  0  0  0
  -10.3329    0.9401    0.0000 H   0  0  0  0  0  0  0  0  0  0  0  0
  -11.0734    0.9401    0.0000 H   0  0  0  0  0  0  0  0  0  0  0  0
   -8.9039    0.9401    0.0000 H   0  0  0  0  0  0  0  0  0  0  0  0
   -9.6444    0.9401    0.0000 H   0  0  0  0  0  0  0  0  0  0  0  0
   -7.4750    0.9401    0.0000 H   0  0  0  0  0  0  0  0  0  0  0  0
   -8.2155    0.9401    0.0000 H   0  0  0  0  0  0  0  0  0  0  0  0
   -7.5010   -0.9469    0.0000 H   0  0  0  0  0  0  0  0  0  0  0  0
   -6.7605   -0.9469    0.0000 H   0  0  0  0  0  0  0  0  0  0  0  0
   -6.0721   -0.9469    0.0000 H   0  0  0  0  0  0  0  0  0  0  0  0
   -5.3316   -0.9469    0.0000 H   0  0  0  0  0  0  0  0  0  0  0  0
   -4.6431   -0.9469    0.0000 H   0  0  0  0  0  0  0  0  0  0  0  0
   -3.9026   -0.9469    0.0000 H   0  0  0  0  0  0  0  0  0  0  0  0
   -3.1882    0.9401    0.0000 H   0  0  0  0  0  0  0  0  0  0  0  0
   -3.9287    0.9401    0.0000 H   0  0  0  0  0  0  0  0  0  0  0  0
   -1.7592    0.9401    0.0000 H   0  0  0  0  0  0  0  0  0  0  0  0
   -2.4997    0.9401    0.0000 H   0  0  0  0  0  0  0  0  0  0  0  0
   -0.3303    0.9401    0.0000 H   0  0  0  0  0  0  0  0  0  0  0  0
   -1.0708    0.9401    0.0000 H   0  0  0  0  0  0  0  0  0  0  0  0
   -0.3563   -0.9469    0.0000 H   0  0  0  0  0  0  0  0  0  0  0  0
    0.3842   -0.9469    0.0000 H   0  0  0  0  0  0  0  0  0  0  0  0
    1.0726   -0.9469    0.0000 H   0  0  0  0  0  0  0  0  0  0  0  0
    1.8131   -0.9469    0.0000 H   0  0  0  0  0  0  0  0  0  0  0  0
    2.5016   -0.9469    0.0000 H   0  0  0  0  0  0  0  0  0  0  0  0
    3.2421   -0.9469    0.0000 H   0  0  0  0  0  0  0  0  0  0  0  0
    3.9566    0.9401    0.0000 H   0  0  0  0  0  0  0  0  0  0  0  0
    3.2160    0.9401    0.0000 H   0  0  0  0  0  0  0  0  0  0  0  0
    5.3855    0.9401    0.0000 H   0  0  0  0  0  0  0  0  0  0  0  0
    4.6450    0.9401    0.0000 H   0  0  0  0  0  0  0  0  0  0  0  0
    6.8144    0.9401    0.0000 H   0  0  0  0  0  0  0  0  0  0  0  0
    6.0739    0.9401    0.0000 H   0  0  0  0  0  0  0  0  0  0  0  0
    6.7884   -0.9469    0.0000 H   0  0  0  0  0  0  0  0  0  0  0  0
    7.5289   -0.9469    0.0000 H   0  0  0  0  0  0  0  0  0  0  0  0
    8.2173   -0.9469    0.0000 H   0  0  0  0  0  0  0  0  0  0  0  0
    8.9578   -0.9469    0.0000 H   0  0  0  0  0  0  0  0  0  0  0  0
    9.6463   -0.9469    0.0000 H   0  0  0  0  0  0  0  0  0  0  0  0
   10.3868   -0.9469    0.0000 H   0  0  0  0  0  0  0  0  0  0  0  0
   11.1013    0.9401    0.0000 H   0  0  0  0  0  0  0  0  0  0  0  0
   10.3607    0.9401    0.0000 H   0  0  0  0  0  0  0  0  0  0  0  0
   12.5302    0.9401    0.0000 H   0  0  0  0  0  0  0  0  0  0  0  0
   11.7897    0.9401    0.0000 H   0  0  0  0  0  0  0  0  0  0  0  0
   13.9591    0.9401    0.0000 H   0  0  0  0  0  0  0  0  0  0  0  0
   13.2186    0.9401    0.0000 H   0  0  0  0  0  0  0  0  0  0  0  0
   13.9331   -0.9469    0.0000 H   0  0  0  0  0  0  0  0  0  0  0  0
   14.6736   -0.9469    0.0000 H   0  0  0  0  0  0  0  0  0  0  0  0
   15.3620   -0.9469    0.0000 H   0  0  0  0  0  0  0  0  0  0  0  0
   16.1026   -0.9469    0.0000 H   0  0  0  0  0  0  0  0  0  0  0  0
   16.7910   -0.9469    0.0000 H   0  0  0  0  0  0  0  0  0  0  0  0
   17.5315   -0.9469    0.0000 H   0  0  0  0  0  0  0  0  0  0  0  0
   18.2460    0.9401    0.0000 H   0  0  0  0  0  0  0  0  0  0  0  0
   17.5055    0.9401    0.0000 H   0  0  0  0  0  0  0  0  0  0  0  0
   19.6749    0.9401    0.0000 H   0  0  0  0  0  0  0  0  0  0  0  0
   18.9344    0.9401    0.0000 H   0  0  0  0  0  0  0  0  0  0  0  0
   21.1039    0.9401    0.0000 H   0  0  0  0  0  0  0  0  0  0  0  0
   20.3633    0.9401    0.0000 H   0  0  0  0  0  0  0  0  0  0  0  0
   21.0778   -0.9469    0.0000 H   0  0  0  0  0  0  0  0  0  0  0  0
   21.8183   -0.9469    0.0000 H   0  0  0  0  0  0  0  0  0  0  0  0
   22.5067   -0.9469    0.0000 H   0  0  0  0  0  0  0  0  0  0  0  0
   23.2473   -0.9469    0.0000 H   0  0  0  0  0  0  0  0  0  0  0  0
   23.9357   -0.9469    0.0000 H   0  0  0  0  0  0  0  0  0  0  0  0
   24.6762   -0.9469    0.0000 H   0  0  0  0  0  0  0  0  0  0  0  0
   25.3907    0.9401    0.0000 H   0  0  0  0  0  0  0  0  0  0  0  0
   24.6502    0.9401    0.0000 H   0  0  0  0  0  0  0  0  0  0  0  0
   26.8196    0.9401    0.0000 H   0  0  0  0  0  0  0  0  0  0  0  0
   26.0791    0.9401    0.0000 H   0  0  0  0  0  0  0  0  0  0  0  0
   28.2486    0.9401    0.0000 H   0  0  0  0  0  0  0  0  0  0  0  0
   27.5080    0.9401    0.0000 H   0  0  0  0  0  0  0  0  0  0  0  0
   28.2225   -0.9469    0.0000 H   0  0  0  0  0  0  0  0  0  0  0  0
   28.9630   -0.9469    0.0000 H   0  0  0  0  0  0  0  0  0  0  0  0
   29.6515   -0.9469    0.0000 H   0  0  0  0  0  0  0  0  0  0  0  0
   30.3920   -0.9469    0.0000 H   0  0  0  0  0  0  0  0  0  0  0  0
   31.0804   -0.9469    0.0000 H   0  0  0  0  0  0  0  0  0  0  0  0
   31.8209   -0.9469    0.0000 H   0  0  0  0  0  0  0  0  0  0  0  0
   32.5354    0.9401    0.0000 H   0  0  0  0  0  0  0  0  0  0  0  0
   31.7949    0.9401    0.0000 H   0  0  0  0  0  0  0  0  0  0  0  0
   33.9643    0.9401    0.0000 H   0  0  0  0  0  0  0  0  0  0  0  0
   33.2238    0.9401    0.0000 H   0  0  0  0  0  0  0  0  0  0  0  0
   35.3933    0.9401    0.0000 H   0  0  0  0  0  0  0  0  0  0  0  0
   34.6528    0.9401    0.0000 H   0  0  0  0  0  0  0  0  0  0  0  0
   35.3672   -0.9469    0.0000 H   0  0  0  0  0  0  0  0  0  0  0  0
   36.1077   -0.9469    0.0000 H   0  0  0  0  0  0  0  0  0  0  0  0
   36.7962   -0.9469    0.0000 H   0  0  0  0  0  0  0  0  0  0  0  0
   37.5367   -0.9469    0.0000 H   0  0  0  0  0  0  0  0  0  0  0  0
   38.2251   -0.9469    0.0000 H   0  0  0  0  0  0  0  0  0  0  0  0
   38.9656   -0.9469    0.0000 H   0  0  0  0  0  0  0  0  0  0  0  0
   39.6801    0.9401    0.0000 H   0  0  0  0  0  0  0  0  0  0  0  0
   38.9396    0.9401    0.0000 H   0  0  0  0  0  0  0  0  0  0  0  0
   41.1090    0.9401    0.0000 H   0  0  0  0  0  0  0  0  0  0  0  0
   40.3685    0.9401    0.0000 H   0  0  0  0  0  0  0  0  0  0  0  0
   42.1528   -0.5951    0.0000 H   0  0  0  0  0  0  0  0  0  0  0  0
   45.1628   -0.1414    0.0000 H   0  0  0  0  0  0  0  0  0  0  0  0
   45.7199    0.4432    0.0000 H   0  0  0  0  0  0  0  0  0  0  0  0
   45.4707    1.2250    0.0000 H   0  0  0  0  0  0  0  0  0  0  0  0
   44.0645    1.9652    0.0000 H   0  0  0  0  0  0  0  0  0  0  0  0
   45.0391   -1.4854    0.0000 H   0  0  0  0  0  0  0  0  0  0  0  0
   46.2991   -0.8777    0.0000 H   0  0  0  0  0  0  0  0  0  0  0  0
   43.9112   -2.2267    0.0000 H   0  0  0  0  0  0  0  0  0  0  0  0
   45.1719   -2.8329    0.0000 H   0  0  0  0  0  0  0  0  0  0  0  0
   42.6284   -1.8070    0.0000 H   0  0  0  0  0  0  0  0  0  0  0  0
   42.9405   -3.1707    0.0000 H   0  0  0  0  0  0  0  0  0  0  0  0
   43.5885   -0.7309    0.0000 H   0  0  0  0  0  0  0  0  0  0  0  0
   41.2846   -1.6351    0.0000 H   0  0  0  0  0  0  0  0  0  0  0  0
  1  2  1  0  0  0  0
  1143  1  0  0  0  0
  1144  1  0  0  0  0
  2  3  1  0  0  0  0
  2  5  1  0  0  0  0
  2  7  1  0  0  0  0
  3  4  1  0  0  0  0
  3145  1  0  0  0  0
  3146  1  0  0  0  0
  4147  1  0  0  0  0
  5  6  1  0  0  0  0
  5148  1  0  0  0  0
  5149  1  0  0  0  0
  6150  1  0  0  0  0
  7  8  1  0  0  0  0
  7151  1  0  0  0  0
  7152  1  0  0  0  0
  8  9  1  0  0  0  0
  9 10  1  0  0  0  0
  9153  1  0  0  0  0
  9154  1  0  0  0  0
 10 11  1  0  0  0  0
 10155  1  0  0  0  0
 10156  1  0  0  0  0
 11 12  1  0  0  0  0
 12 13  1  0  0  0  0
 12157  1  0  0  0  0
 12158  1  0  0  0  0
 13 14  1  0  0  0  0
 14 15  1  0  0  0  0
 14159  1  0  0  0  0
 14160  1  0  0  0  0
 15 16  1  0  0  0  0
 15161  1  0  0  0  0
 15162  1  0  0  0  0
 16 17  1  0  0  0  0
 17 18  1  0  0  0  0
 17163  1  0  0  0  0
 17164  1  0  0  0  0
 18 19  1  0  0  0  0
 19 20  1  0  0  0  0
 19165  1  0  0  0  0
 19166  1  0  0  0  0
 20 21  1  0  0  0  0
 20167  1  0  0  0  0
 20168  1  0  0  0  0
 21 22  1  0  0  0  0
 22 23  1  0  0  0  0
 22169  1  0  0  0  0
 22170  1  0  0  0  0
 23 24  1  0  0  0  0
 24 25  1  0  0  0  0
 24171  1  0  0  0  0
 24172  1  0  0  0  0
 25 26  1  0  0  0  0
 25173  1  0  0  0  0
 25174  1  0  0  0  0
 26 27  1  0  0  0  0
 27 28  1  0  0  0  0
 27175  1  0  0  0  0
 27176  1  0  0  0  0
 28 29  1  0  0  0  0
 29 30  1  0  0  0  0
 29177  1  0  0  0  0
 29178  1  0  0  0  0
 30 31  1  0  0  0  0
 30179  1  0  0  0  0
 30180  1  0  0  0  0
 31 32  1  0  0  0  0
 32 33  1  0  0  0  0
 32181  1  0  0  0  0
 32182  1  0  0  0  0
 33 34  1  0  0  0  0
 34 35  1  0  0  0  0
 34183  1  0  0  0  0
 34184  1  0  0  0  0
 35 36  1  0  0  0  0
 35185  1  0  0  0  0
 35186  1  0  0  0  0
 36 37  1  0  0  0  0
 37 38  1  0  0  0  0
 37187  1  0  0  0  0
 37188  1  0  0  0  0
 38 39  1  0  0  0  0
 39 40  1  0  0  0  0
 39189  1  0  0  0  0
 39190  1  0  0  0  0
 40 41  1  0  0  0  0
 40191  1  0  0  0  0
 40192  1  0  0  0  0
 41 42  1  0  0  0  0
 42 43  1  0  0  0  0
 42193  1  0  0  0  0
 42194  1  0  0  0  0
 43 44  1  0  0  0  0
 44 45  1  0  0  0  0
 44195  1  0  0  0  0
 44196  1  0  0  0  0
 45 46  1  0  0  0  0
 45197  1  0  0  0  0
 45198  1  0  0  0  0
 46 47  1  0  0  0  0
 47 48  1  0  0  0  0
 47199  1  0  0  0  0
 47200  1  0  0  0  0
 48 49  1  0  0  0  0
 49 50  1  0  0  0  0
 49201  1  0  0  0  0
 49202  1  0  0  0  0
 50 51  1  0  0  0  0
 50203  1  0  0  0  0
 50204  1  0  0  0  0
 51 52  1  0  0  0  0
 52 53  1  0  0  0  0
 52205  1  0  0  0  0
 52206  1  0  0  0  0
 53 54  1  0  0  0  0
 54 55  1  0  0  0  0
 54207  1  0  0  0  0
 54208  1  0  0  0  0
 55 56  1  0  0  0  0
 55209  1  0  0  0  0
 55210  1  0  0  0  0
 56 57  1  0  0  0  0
 57 58  1  0  0  0  0
 57211  1  0  0  0  0
 57212  1  0  0  0  0
 58 59  1  0  0  0  0
 59 60  1  0  0  0  0
 59213  1  0  0  0  0
 59214  1  0  0  0  0
 60 61  1  0  0  0  0
 60215  1  0  0  0  0
 60216  1  0  0  0  0
 61 62  1  0  0  0  0
 62 63  1  0  0  0  0
 62217  1  0  0  0  0
 62218  1  0  0  0  0
 63 64  1  0  0  0  0
 64 65  1  0  0  0  0
 64219  1  0  0  0  0
 64220  1  0  0  0  0
 65 66  1  0  0  0  0
 65221  1  0  0  0  0
 65222  1  0  0  0  0
 66 67  1  0  0  0  0
 67 68  1  0  0  0  0
 67223  1  0  0  0  0
 67224  1  0  0  0  0
 68 69  1  0  0  0  0
 69 70  1  0  0  0  0
 69225  1  0  0  0  0
 69226  1  0  0  0  0
 70 71  1  0  0  0  0
 70227  1  0  0  0  0
 70228  1  0  0  0  0
 71 72  1  0  0  0  0
 72 73  1  0  0  0  0
 72229  1  0  0  0  0
 72230  1  0  0  0  0
 73 74  1  0  0  0  0
 74 75  1  0  0  0  0
 74231  1  0  0  0  0
 74232  1  0  0  0  0
 75 76  1  0  0  0  0
 75233  1  0  0  0  0
 75234  1  0  0  0  0
 76 77  1  0  0  0  0
 77 78  1  0  0  0  0
 77235  1  0  0  0  0
 77236  1  0  0  0  0
 78 79  1  0  0  0  0
 79 80  1  0  0  0  0
 79237  1  0  0  0  0
 79238  1  0  0  0  0
 80 81  1  0  0  0  0
 80239  1  0  0  0  0
 80240  1  0  0  0  0
 81 82  1  0  0  0  0
 82 83  1  0  0  0  0
 82241  1  0  0  0  0
 82242  1  0  0  0  0
 83 84  1  0  0  0  0
 84 85  1  0  0  0  0
 84243  1  0  0  0  0
 84244  1  0  0  0  0
 85 86  1  0  0  0  0
 85245  1  0  0  0  0
 85246  1  0  0  0  0
 86 87  1  0  0  0  0
 87 88  1  0  0  0  0
 87247  1  0  0  0  0
 87248  1  0  0  0  0
 88 89  1  0  0  0  0
 89 90  1  0  0  0  0
 89249  1  0  0  0  0
 89250  1  0  0  0  0
 90 91  1  0  0  0  0
 90251  1  0  0  0  0
 90252  1  0  0  0  0
 91 92  1  0  0  0  0
 92 93  1  0  0  0  0
 92253  1  0  0  0  0
 92254  1  0  0  0  0
 93 94  1  0  0  0  0
 94 95  1  0  0  0  0
 94255  1  0  0  0  0
 94256  1  0  0  0  0
 95 96  1  0  0  0  0
 95257  1  0  0  0  0
 95258  1  0  0  0  0
 96 97  1  0  0  0  0
 97 98  1  0  0  0  0
 97259  1  0  0  0  0
 97260  1  0  0  0  0
 98 99  1  0  0  0  0
 99100  1  0  0  0  0
 99261  1  0  0  0  0
 99262  1  0  0  0  0
100101  1  0  0  0  0
100263  1  0  0  0  0
100264  1  0  0  0  0
101102  1  0  0  0  0
102103  1  0  0  0  0
102265  1  0  0  0  0
102266  1  0  0  0  0
103104  1  0  0  0  0
104105  1  0  0  0  0
104267  1  0  0  0  0
104268  1  0  0  0  0
105106  1  0  0  0  0
105269  1  0  0  0  0
105270  1  0  0  0  0
106107  1  0  0  0  0
107108  1  0  0  0  0
107271  1  0  0  0  0
107272  1  0  0  0  0
108109  1  0  0  0  0
109110  1  0  0  0  0
109273  1  0  0  0  0
109274  1  0  0  0  0
110111  1  0  0  0  0
110275  1  0  0  0  0
110276  1  0  0  0  0
111112  1  0  0  0  0
112113  1  0  0  0  0
112277  1  0  0  0  0
112278  1  0  0  0  0
113114  1  0  0  0  0
114115  1  0  0  0  0
114279  1  0  0  0  0
114280  1  0  0  0  0
115116  1  0  0  0  0
115281  1  0  0  0  0
115282  1  0  0  0  0
116117  1  0  0  0  0
117118  1  0  0  0  0
117283  1  0  0  0  0
117284  1  0  0  0  0
118119  1  0  0  0  0
119120  1  0  0  0  0
119285  1  0  0  0  0
119286  1  0  0  0  0
120121  1  0  0  0  0
120287  1  0  0  0  0
120288  1  0  0  0  0
121122  1  0  0  0  0
122123  1  0  0  0  0
122289  1  0  0  0  0
122290  1  0  0  0  0
123124  1  0  0  0  0
124125  1  0  0  0  0
124291  1  0  0  0  0
124292  1  0  0  0  0
125126  1  0  0  0  0
125293  1  0  0  0  0
125294  1  0  0  0  0
126127  1  0  0  0  0
127128  1  0  0  0  0
127295  1  0  0  0  0
127296  1  0  0  0  0
128129  1  0  0  0  0
130129  1  6  0  0  0
130131  1  0  0  0  0
130141  1  0  0  0  0
130297  1  1  0  0  0
131132  1  0  0  0  0
132133  1  6  0  0  0
132135  1  0  0  0  0
132298  1  1  0  0  0
133134  1  0  0  0  0
133299  1  0  0  0  0
133300  1  0  0  0  0
134301  1  0  0  0  0
135136  1  1  0  0  0
135137  1  0  0  0  0
135302  1  6  0  0  0
136303  1  0  0  0  0
137138  1  6  0  0  0
137139  1  0  0  0  0
137304  1  1  0  0  0
138305  1  0  0  0  0
139140  1  6  0  0  0
139141  1  0  0  0  0
139306  1  1  0  0  0
140307  1  0  0  0  0
141142  1  6  0  0  0
141308  1  6  0  0  0
142309  1  0  0  0  0
M  END
