1arm_peg24_glc.pdb
  Mrv15b2301182601273D          

309309  0  0  0  0            999 V2000
   91.5575  -94.6503   64.6591 N   0  0  1  0  0  0  0  0  0  0  0  0
   92.3725  -93.6465   63.9769 C   0  0  2  0  0  0  0  0  0  0  0  0
   93.4483  -94.3443   63.1424 C   0  0  1  0  0  0  0  0  0  0  0  0
   92.8295  -95.1853   62.1800 O   0  0  0  0  0  0  0  0  0  0  0  0
   93.0393  -92.7404   65.0139 C   0  0  2  0  0  0  0  0  0  0  0  0
   93.8650  -93.5221   65.8644 O   0  0  0  0  0  0  0  0  0  0  0  0
   91.4827  -92.8041   63.0605 C   0  0  2  0  0  0  0  0  0  0  0  0
   90.4842  -92.1565   63.8350 O   0  0  0  0  0  0  0  0  0  0  0  0
   89.6585  -91.3747   62.9845 C   0  0  2  0  0  0  0  0  0  0  0  0
   88.5826  -90.6768   63.8191 C   0  0  1  0  0  0  0  0  0  0  0  0
   87.7568  -89.8951   62.9686 O   0  0  0  0  0  0  0  0  0  0  0  0
   86.7583  -89.2474   63.7431 C   0  0  1  0  0  0  0  0  0  0  0  0
   85.9326  -88.4656   62.8926 O   0  0  0  0  0  0  0  0  0  0  0  0
   84.9340  -87.8180   63.6671 C   0  0  1  0  0  0  0  0  0  0  0  0
   84.0443  -86.9756   62.7507 C   0  0  2  0  0  0  0  0  0  0  0  0
   83.0458  -86.3280   63.5252 O   0  0  0  0  0  0  0  0  0  0  0  0
   82.2200  -85.5462   62.6747 C   0  0  2  0  0  0  0  0  0  0  0  0
   81.2215  -84.8985   63.4492 O   0  0  0  0  0  0  0  0  0  0  0  0
   80.3958  -84.1167   62.5987 C   0  0  2  0  0  0  0  0  0  0  0  0
   79.3199  -83.4189   63.4333 C   0  0  1  0  0  0  0  0  0  0  0  0
   78.4941  -82.6371   62.5828 O   0  0  0  0  0  0  0  0  0  0  0  0
   77.4956  -81.9894   63.3573 C   0  0  1  0  0  0  0  0  0  0  0  0
   76.6699  -81.2077   62.5068 O   0  0  0  0  0  0  0  0  0  0  0  0
   75.6714  -80.5600   63.2813 C   0  0  1  0  0  0  0  0  0  0  0  0
   74.7816  -79.7177   62.3649 C   0  0  2  0  0  0  0  0  0  0  0  0
   73.7831  -79.0700   63.1394 O   0  0  0  0  0  0  0  0  0  0  0  0
   72.9573  -78.2882   62.2889 C   0  0  2  0  0  0  0  0  0  0  0  0
   71.9588  -77.6406   63.0634 O   0  0  0  0  0  0  0  0  0  0  0  0
   71.1331  -76.8588   62.2129 C   0  0  2  0  0  0  0  0  0  0  0  0
   70.0572  -76.1609   63.0475 C   0  0  1  0  0  0  0  0  0  0  0  0
   69.2314  -75.3792   62.1970 O   0  0  0  0  0  0  0  0  0  0  0  0
   68.2329  -74.7315   62.9715 C   0  0  1  0  0  0  0  0  0  0  0  0
   67.4072  -73.9497   62.1210 O   0  0  0  0  0  0  0  0  0  0  0  0
   66.4087  -73.3020   62.8955 C   0  0  1  0  0  0  0  0  0  0  0  0
   65.5189  -72.4597   61.9791 C   0  0  2  0  0  0  0  0  0  0  0  0
   64.5204  -71.8120   62.7536 O   0  0  0  0  0  0  0  0  0  0  0  0
   63.6946  -71.0303   61.9031 C   0  0  2  0  0  0  0  0  0  0  0  0
   62.6961  -70.3826   62.6776 O   0  0  0  0  0  0  0  0  0  0  0  0
   61.8704  -69.6008   61.8271 C   0  0  2  0  0  0  0  0  0  0  0  0
   60.7945  -68.9030   62.6617 C   0  0  1  0  0  0  0  0  0  0  0  0
   59.9687  -68.1212   61.8112 O   0  0  0  0  0  0  0  0  0  0  0  0
   58.9702  -67.4735   62.5857 C   0  0  1  0  0  0  0  0  0  0  0  0
   58.1445  -66.6918   61.7352 O   0  0  0  0  0  0  0  0  0  0  0  0
   57.1460  -66.0441   62.5097 C   0  0  1  0  0  0  0  0  0  0  0  0
   56.2562  -65.2018   61.5933 C   0  0  2  0  0  0  0  0  0  0  0  0
   55.2577  -64.5541   62.3678 O   0  0  0  0  0  0  0  0  0  0  0  0
   54.4320  -63.7723   61.5173 C   0  0  2  0  0  0  0  0  0  0  0  0
   53.4334  -63.1246   62.2918 O   0  0  0  0  0  0  0  0  0  0  0  0
   52.6077  -62.3429   61.4413 C   0  0  2  0  0  0  0  0  0  0  0  0
   51.5318  -61.6450   62.2759 C   0  0  1  0  0  0  0  0  0  0  0  0
   50.7060  -60.8633   61.4254 O   0  0  0  0  0  0  0  0  0  0  0  0
   49.7075  -60.2156   62.1999 C   0  0  1  0  0  0  0  0  0  0  0  0
   48.8818  -59.4338   61.3494 O   0  0  0  0  0  0  0  0  0  0  0  0
   47.8833  -58.7861   62.1239 C   0  0  1  0  0  0  0  0  0  0  0  0
   46.9935  -57.9438   61.2075 C   0  0  2  0  0  0  0  0  0  0  0  0
   45.9950  -57.2961   61.9820 O   0  0  0  0  0  0  0  0  0  0  0  0
   45.1693  -56.5144   61.1315 C   0  0  2  0  0  0  0  0  0  0  0  0
   44.1707  -55.8667   61.9061 O   0  0  0  0  0  0  0  0  0  0  0  0
   43.3450  -55.0849   61.0555 C   0  0  2  0  0  0  0  0  0  0  0  0
   42.2691  -54.3871   61.8901 C   0  0  1  0  0  0  0  0  0  0  0  0
   41.4434  -53.6053   61.0396 O   0  0  0  0  0  0  0  0  0  0  0  0
   40.4448  -52.9576   61.8141 C   0  0  1  0  0  0  0  0  0  0  0  0
   39.6191  -52.1759   60.9636 O   0  0  0  0  0  0  0  0  0  0  0  0
   38.6206  -51.5282   61.7381 C   0  0  1  0  0  0  0  0  0  0  0  0
   37.7308  -50.6859   60.8217 C   0  0  2  0  0  0  0  0  0  0  0  0
   36.7323  -50.0382   61.5962 O   0  0  0  0  0  0  0  0  0  0  0  0
   35.9066  -49.2564   60.7457 C   0  0  2  0  0  0  0  0  0  0  0  0
   34.9080  -48.6087   61.5203 O   0  0  0  0  0  0  0  0  0  0  0  0
   34.0823  -47.8270   60.6697 C   0  0  2  0  0  0  0  0  0  0  0  0
   33.0064  -47.1291   61.5043 C   0  0  1  0  0  0  0  0  0  0  0  0
   32.1807  -46.3474   60.6538 O   0  0  0  0  0  0  0  0  0  0  0  0
   31.1821  -45.6997   61.4283 C   0  0  1  0  0  0  0  0  0  0  0  0
   30.3564  -44.9179   60.5778 O   0  0  0  0  0  0  0  0  0  0  0  0
   29.3579  -44.2702   61.3523 C   0  0  1  0  0  0  0  0  0  0  0  0
   28.4681  -43.4279   60.4359 C   0  0  2  0  0  0  0  0  0  0  0  0
   27.4696  -42.7802   61.2104 O   0  0  0  0  0  0  0  0  0  0  0  0
   26.6439  -41.9985   60.3599 C   0  0  2  0  0  0  0  0  0  0  0  0
   25.6454  -41.3508   61.1345 O   0  0  0  0  0  0  0  0  0  0  0  0
   24.8196  -40.5690   60.2839 C   0  0  2  0  0  0  0  0  0  0  0  0
   23.7437  -39.8712   61.1185 C   0  0  1  0  0  0  0  0  0  0  0  0
   22.9180  -39.0894   60.2680 O   0  0  0  0  0  0  0  0  0  0  0  0
   21.9195  -38.4417   61.0425 C   0  0  1  0  0  0  0  0  0  0  0  0
   21.0937  -37.6600   60.1920 O   0  0  0  0  0  0  0  0  0  0  0  0
   20.0952  -37.0123   60.9665 C   0  0  1  0  0  0  0  0  0  0  0  0
   19.2054  -36.1700   60.0501 C   0  0  2  0  0  0  0  0  0  0  0  0
   18.2069  -35.5223   60.8246 O   0  0  0  0  0  0  0  0  0  0  0  0
   17.3812  -34.7405   59.9741 C   0  0  2  0  0  0  0  0  0  0  0  0
   16.3827  -34.0928   60.7487 O   0  0  0  0  0  0  0  0  0  0  0  0
   15.5569  -33.3111   59.8982 C   0  0  2  0  0  0  0  0  0  0  0  0
   14.4810  -32.6132   60.7327 C   0  0  1  0  0  0  0  0  0  0  0  0
   13.6553  -31.8315   59.8822 O   0  0  0  0  0  0  0  0  0  0  0  0
   12.6568  -31.1838   60.6567 C   0  0  1  0  0  0  0  0  0  0  0  0
   11.8310  -30.4020   59.8062 O   0  0  0  0  0  0  0  0  0  0  0  0
   10.8325  -29.7543   60.5807 C   0  0  1  0  0  0  0  0  0  0  0  0
    9.9427  -28.9120   59.6643 C   0  0  2  0  0  0  0  0  0  0  0  0
    8.9442  -28.2643   60.4388 O   0  0  0  0  0  0  0  0  0  0  0  0
    8.1185  -27.4826   59.5883 C   0  0  2  0  0  0  0  0  0  0  0  0
    7.1200  -26.8349   60.3629 O   0  0  0  0  0  0  0  0  0  0  0  0
    6.2942  -26.0531   59.5124 C   0  0  2  0  0  0  0  0  0  0  0  0
    5.2183  -25.3553   60.3469 C   0  0  1  0  0  0  0  0  0  0  0  0
    4.3926  -24.5735   59.4964 O   0  0  0  0  0  0  0  0  0  0  0  0
    3.3941  -23.9258   60.2709 C   0  0  1  0  0  0  0  0  0  0  0  0
    2.5683  -23.1441   59.4204 O   0  0  0  0  0  0  0  0  0  0  0  0
    1.5698  -22.4964   60.1949 C   0  0  1  0  0  0  0  0  0  0  0  0
    0.6801  -21.6541   59.2785 C   0  0  2  0  0  0  0  0  0  0  0  0
   -0.3185  -21.0064   60.0530 O   0  0  0  0  0  0  0  0  0  0  0  0
   -1.1442  -20.2246   59.2025 C   0  0  2  0  0  0  0  0  0  0  0  0
   -2.1427  -19.5769   59.9771 O   0  0  0  0  0  0  0  0  0  0  0  0
   -2.9685  -18.7952   59.1266 C   0  0  2  0  0  0  0  0  0  0  0  0
   -4.0444  -18.0973   59.9611 C   0  0  1  0  0  0  0  0  0  0  0  0
   -4.8701  -17.3155   59.1106 O   0  0  0  0  0  0  0  0  0  0  0  0
   -5.8686  -16.6679   59.8851 C   0  0  1  0  0  0  0  0  0  0  0  0
   -6.6944  -15.8861   59.0346 O   0  0  0  0  0  0  0  0  0  0  0  0
   -7.6929  -15.2384   59.8091 C   0  0  1  0  0  0  0  0  0  0  0  0
   -8.5826  -14.3961   58.8927 C   0  0  2  0  0  0  0  0  0  0  0  0
   -9.5812  -13.7484   59.6672 O   0  0  0  0  0  0  0  0  0  0  0  0
  -10.4069  -12.9667   58.8167 C   0  0  2  0  0  0  0  0  0  0  0  0
  -11.4054  -12.3190   59.5913 O   0  0  0  0  0  0  0  0  0  0  0  0
  -12.2312  -11.5372   58.7408 C   0  0  2  0  0  0  0  0  0  0  0  0
  -13.3071  -10.8394   59.5753 C   0  0  1  0  0  0  0  0  0  0  0  0
  -14.1328  -10.0576   58.7248 O   0  0  0  0  0  0  0  0  0  0  0  0
  -15.1313   -9.4099   59.4993 C   0  0  1  0  0  0  0  0  0  0  0  0
  -15.9571   -8.6281   58.6488 O   0  0  0  0  0  0  0  0  0  0  0  0
  -16.9556   -7.9805   59.4233 C   0  0  1  0  0  0  0  0  0  0  0  0
  -17.8453   -7.1381   58.5069 C   0  0  2  0  0  0  0  0  0  0  0  0
  -18.8439   -6.4905   59.2814 O   0  0  0  0  0  0  0  0  0  0  0  0
  -19.6696   -5.7087   58.4309 C   0  0  2  0  0  0  0  0  0  0  0  0
  -20.6681   -5.0610   59.2055 O   0  0  0  0  0  0  0  0  0  0  0  0
  -21.4299   -4.3398   58.4208 O   0  0  0  0  0  0  0  0  0  0  0  0
  -22.4335   -3.6888   59.1993 C   0  0  2  0  0  0  0  0  0  0  0  0
  -23.1919   -4.7281   59.8375 O   0  0  0  0  0  0  0  0  0  0  0  0
  -23.6690   -4.3999   61.1346 C   0  0  2  0  0  0  0  0  0  0  0  0
  -23.7517   -5.6698   61.9840 C   0  0  2  0  0  0  0  0  0  0  0  0
  -22.4618   -6.2545   62.0880 O   0  0  0  0  0  0  0  0  0  0  0  0
  -25.0680   -3.7875   60.9931 C   0  0  1  0  0  0  0  0  0  0  0  0
  -25.6462   -3.6258   62.2798 O   0  0  0  0  0  0  0  0  0  0  0  0
  -25.3132   -2.5074   60.1512 C   0  0  2  0  0  0  0  0  0  0  0  0
  -26.5813   -2.5931   59.5179 O   0  0  0  0  0  0  0  0  0  0  0  0
  -24.2815   -1.8910   59.1642 C   0  0  2  0  0  0  0  0  0  0  0  0
  -24.9359   -0.9583   58.3167 O   0  0  0  0  0  0  0  0  0  0  0  0
  -23.3243   -2.7609   58.3279 C   0  0  1  0  0  0  0  0  0  0  0  0
  -22.5079   -1.7655   57.7292 O   0  0  0  0  0  0  0  0  0  0  0  0
   90.8388  -94.1842   65.2166 H   0  0  0  0  0  0  0  0  0  0  0  0
   91.1120  -95.2556   63.9665 H   0  0  0  0  0  0  0  0  0  0  0  0
   94.0560  -93.5959   62.6337 H   0  0  0  0  0  0  0  0  0  0  0  0
   94.0822  -94.9444   63.7952 H   0  0  0  0  0  0  0  0  0  0  0  0
   93.5186  -95.6323   61.6455 H   0  0  0  0  0  0  0  0  0  0  0  0
   92.2728  -92.2432   65.6084 H   0  0  0  0  0  0  0  0  0  0  0  0
   93.6469  -91.9919   64.5052 H   0  0  0  0  0  0  0  0  0  0  0  0
   94.2921  -92.9417   66.5286 H   0  0  0  0  0  0  0  0  0  0  0  0
   91.0077  -93.4497   62.3218 H   0  0  0  0  0  0  0  0  0  0  0  0
   92.0904  -92.0557   62.5519 H   0  0  0  0  0  0  0  0  0  0  0  0
   89.1834  -92.0202   62.2458 H   0  0  0  0  0  0  0  0  0  0  0  0
   90.2661  -90.6263   62.4759 H   0  0  0  0  0  0  0  0  0  0  0  0
   87.9750  -91.4253   64.3277 H   0  0  0  0  0  0  0  0  0  0  0  0
   89.0576  -90.0313   64.5578 H   0  0  0  0  0  0  0  0  0  0  0  0
   86.1507  -89.9958   64.2517 H   0  0  0  0  0  0  0  0  0  0  0  0
   87.2334  -88.6019   64.4818 H   0  0  0  0  0  0  0  0  0  0  0  0
   84.3264  -88.5664   64.1757 H   0  0  0  0  0  0  0  0  0  0  0  0
   85.4091  -87.1724   64.4058 H   0  0  0  0  0  0  0  0  0  0  0  0
   83.5693  -87.6212   62.0120 H   0  0  0  0  0  0  0  0  0  0  0  0
   84.6520  -86.2272   62.2421 H   0  0  0  0  0  0  0  0  0  0  0  0
   81.7450  -86.1917   61.9360 H   0  0  0  0  0  0  0  0  0  0  0  0
   82.8277  -84.7977   62.1661 H   0  0  0  0  0  0  0  0  0  0  0  0
   79.9207  -84.7623   61.8600 H   0  0  0  0  0  0  0  0  0  0  0  0
   81.0034  -83.3683   62.0901 H   0  0  0  0  0  0  0  0  0  0  0  0
   78.7123  -84.1673   63.9419 H   0  0  0  0  0  0  0  0  0  0  0  0
   79.7949  -82.7734   64.1720 H   0  0  0  0  0  0  0  0  0  0  0  0
   76.8880  -82.7379   63.8659 H   0  0  0  0  0  0  0  0  0  0  0  0
   77.9707  -81.3439   64.0960 H   0  0  0  0  0  0  0  0  0  0  0  0
   75.0637  -81.3084   63.7899 H   0  0  0  0  0  0  0  0  0  0  0  0
   76.1464  -79.9145   64.0200 H   0  0  0  0  0  0  0  0  0  0  0  0
   74.3066  -80.3632   61.6262 H   0  0  0  0  0  0  0  0  0  0  0  0
   75.3893  -78.9692   61.8563 H   0  0  0  0  0  0  0  0  0  0  0  0
   72.4823  -78.9338   61.5502 H   0  0  0  0  0  0  0  0  0  0  0  0
   73.5650  -77.5398   61.7803 H   0  0  0  0  0  0  0  0  0  0  0  0
   70.6580  -77.5043   61.4742 H   0  0  0  0  0  0  0  0  0  0  0  0
   71.7407  -76.1104   61.7043 H   0  0  0  0  0  0  0  0  0  0  0  0
   69.4496  -76.9094   63.5561 H   0  0  0  0  0  0  0  0  0  0  0  0
   70.5322  -75.5154   63.7862 H   0  0  0  0  0  0  0  0  0  0  0  0
   67.6253  -75.4799   63.4801 H   0  0  0  0  0  0  0  0  0  0  0  0
   68.7080  -74.0860   63.7102 H   0  0  0  0  0  0  0  0  0  0  0  0
   65.8010  -74.0505   63.4041 H   0  0  0  0  0  0  0  0  0  0  0  0
   66.8837  -72.6565   63.6342 H   0  0  0  0  0  0  0  0  0  0  0  0
   65.0439  -73.1052   61.2404 H   0  0  0  0  0  0  0  0  0  0  0  0
   66.1266  -71.7113   61.4705 H   0  0  0  0  0  0  0  0  0  0  0  0
   63.2196  -71.6758   61.1644 H   0  0  0  0  0  0  0  0  0  0  0  0
   64.3023  -70.2818   61.3945 H   0  0  0  0  0  0  0  0  0  0  0  0
   61.3953  -70.2464   61.0884 H   0  0  0  0  0  0  0  0  0  0  0  0
   62.4780  -68.8524   61.3185 H   0  0  0  0  0  0  0  0  0  0  0  0
   60.1869  -69.6514   63.1703 H   0  0  0  0  0  0  0  0  0  0  0  0
   61.2696  -68.2575   63.4004 H   0  0  0  0  0  0  0  0  0  0  0  0
   58.3626  -68.2220   63.0943 H   0  0  0  0  0  0  0  0  0  0  0  0
   59.4453  -66.8280   63.3244 H   0  0  0  0  0  0  0  0  0  0  0  0
   56.5383  -66.7925   63.0183 H   0  0  0  0  0  0  0  0  0  0  0  0
   57.6210  -65.3986   63.2484 H   0  0  0  0  0  0  0  0  0  0  0  0
   55.7812  -65.8473   60.8546 H   0  0  0  0  0  0  0  0  0  0  0  0
   56.8639  -64.4533   61.0847 H   0  0  0  0  0  0  0  0  0  0  0  0
   53.9569  -64.4178   60.7786 H   0  0  0  0  0  0  0  0  0  0  0  0
   55.0396  -63.0239   61.0087 H   0  0  0  0  0  0  0  0  0  0  0  0
   52.1326  -62.9884   60.7026 H   0  0  0  0  0  0  0  0  0  0  0  0
   53.2153  -61.5944   60.9327 H   0  0  0  0  0  0  0  0  0  0  0  0
   50.9242  -62.3935   62.7845 H   0  0  0  0  0  0  0  0  0  0  0  0
   52.0069  -60.9995   63.0146 H   0  0  0  0  0  0  0  0  0  0  0  0
   49.0999  -60.9640   62.7085 H   0  0  0  0  0  0  0  0  0  0  0  0
   50.1826  -59.5701   62.9386 H   0  0  0  0  0  0  0  0  0  0  0  0
   47.2756  -59.5346   62.6325 H   0  0  0  0  0  0  0  0  0  0  0  0
   48.3583  -58.1406   62.8626 H   0  0  0  0  0  0  0  0  0  0  0  0
   46.5185  -58.5893   60.4688 H   0  0  0  0  0  0  0  0  0  0  0  0
   47.6012  -57.1954   60.6989 H   0  0  0  0  0  0  0  0  0  0  0  0
   44.6942  -57.1599   60.3928 H   0  0  0  0  0  0  0  0  0  0  0  0
   45.7769  -55.7659   60.6229 H   0  0  0  0  0  0  0  0  0  0  0  0
   42.8699  -55.7305   60.3168 H   0  0  0  0  0  0  0  0  0  0  0  0
   43.9526  -54.3365   60.5469 H   0  0  0  0  0  0  0  0  0  0  0  0
   41.6615  -55.1355   62.3987 H   0  0  0  0  0  0  0  0  0  0  0  0
   42.7442  -53.7416   62.6288 H   0  0  0  0  0  0  0  0  0  0  0  0
   39.8372  -53.7061   62.3227 H   0  0  0  0  0  0  0  0  0  0  0  0
   40.9199  -52.3121   62.5528 H   0  0  0  0  0  0  0  0  0  0  0  0
   38.0129  -52.2766   62.2467 H   0  0  0  0  0  0  0  0  0  0  0  0
   39.0956  -50.8827   62.4768 H   0  0  0  0  0  0  0  0  0  0  0  0
   37.2558  -51.3314   60.0830 H   0  0  0  0  0  0  0  0  0  0  0  0
   38.3385  -49.9374   60.3131 H   0  0  0  0  0  0  0  0  0  0  0  0
   35.4315  -49.9019   60.0070 H   0  0  0  0  0  0  0  0  0  0  0  0
   36.5142  -48.5080   60.2371 H   0  0  0  0  0  0  0  0  0  0  0  0
   33.6072  -48.4725   59.9310 H   0  0  0  0  0  0  0  0  0  0  0  0
   34.6899  -47.0785   60.1611 H   0  0  0  0  0  0  0  0  0  0  0  0
   32.3988  -47.8776   62.0129 H   0  0  0  0  0  0  0  0  0  0  0  0
   33.4815  -46.4836   62.2430 H   0  0  0  0  0  0  0  0  0  0  0  0
   30.5745  -46.4481   61.9369 H   0  0  0  0  0  0  0  0  0  0  0  0
   31.6572  -45.0542   62.1670 H   0  0  0  0  0  0  0  0  0  0  0  0
   28.7502  -45.0187   61.8609 H   0  0  0  0  0  0  0  0  0  0  0  0
   29.8329  -43.6247   62.0910 H   0  0  0  0  0  0  0  0  0  0  0  0
   27.9931  -44.0734   59.6972 H   0  0  0  0  0  0  0  0  0  0  0  0
   29.0758  -42.6795   59.9273 H   0  0  0  0  0  0  0  0  0  0  0  0
   26.1688  -42.6440   59.6212 H   0  0  0  0  0  0  0  0  0  0  0  0
   27.2515  -41.2500   59.8513 H   0  0  0  0  0  0  0  0  0  0  0  0
   24.3445  -41.2145   59.5452 H   0  0  0  0  0  0  0  0  0  0  0  0
   25.4272  -39.8206   59.7753 H   0  0  0  0  0  0  0  0  0  0  0  0
   23.1361  -40.6196   61.6271 H   0  0  0  0  0  0  0  0  0  0  0  0
   24.2188  -39.2256   61.8572 H   0  0  0  0  0  0  0  0  0  0  0  0
   21.3118  -39.1902   61.5511 H   0  0  0  0  0  0  0  0  0  0  0  0
   22.3945  -37.7962   61.7812 H   0  0  0  0  0  0  0  0  0  0  0  0
   19.4875  -37.7607   61.4751 H   0  0  0  0  0  0  0  0  0  0  0  0
   20.5702  -36.3668   61.7052 H   0  0  0  0  0  0  0  0  0  0  0  0
   18.7304  -36.8155   59.3114 H   0  0  0  0  0  0  0  0  0  0  0  0
   19.8131  -35.4215   59.5415 H   0  0  0  0  0  0  0  0  0  0  0  0
   16.9061  -35.3860   59.2354 H   0  0  0  0  0  0  0  0  0  0  0  0
   17.9888  -33.9921   59.4655 H   0  0  0  0  0  0  0  0  0  0  0  0
   15.0819  -33.9566   59.1594 H   0  0  0  0  0  0  0  0  0  0  0  0
   16.1645  -32.5626   59.3895 H   0  0  0  0  0  0  0  0  0  0  0  0
   13.8734  -33.3617   61.2413 H   0  0  0  0  0  0  0  0  0  0  0  0
   14.9561  -31.9677   61.4714 H   0  0  0  0  0  0  0  0  0  0  0  0
   12.0491  -31.9322   61.1653 H   0  0  0  0  0  0  0  0  0  0  0  0
   13.1318  -30.5382   61.3954 H   0  0  0  0  0  0  0  0  0  0  0  0
   10.2248  -30.5028   61.0893 H   0  0  0  0  0  0  0  0  0  0  0  0
   11.3075  -29.1088   61.3194 H   0  0  0  0  0  0  0  0  0  0  0  0
    9.4677  -29.5575   58.9256 H   0  0  0  0  0  0  0  0  0  0  0  0
   10.5504  -28.1636   59.1557 H   0  0  0  0  0  0  0  0  0  0  0  0
    7.6434  -28.1281   58.8496 H   0  0  0  0  0  0  0  0  0  0  0  0
    8.7261  -26.7341   59.0797 H   0  0  0  0  0  0  0  0  0  0  0  0
    5.8192  -26.6986   58.7736 H   0  0  0  0  0  0  0  0  0  0  0  0
    6.9018  -25.3047   59.0037 H   0  0  0  0  0  0  0  0  0  0  0  0
    4.6107  -26.1037   60.8555 H   0  0  0  0  0  0  0  0  0  0  0  0
    5.6934  -24.7097   61.0856 H   0  0  0  0  0  0  0  0  0  0  0  0
    2.7864  -24.6743   60.7795 H   0  0  0  0  0  0  0  0  0  0  0  0
    3.8691  -23.2803   61.0096 H   0  0  0  0  0  0  0  0  0  0  0  0
    0.9621  -23.2448   60.7035 H   0  0  0  0  0  0  0  0  0  0  0  0
    2.0448  -21.8509   60.9337 H   0  0  0  0  0  0  0  0  0  0  0  0
    0.2050  -22.2996   58.5398 H   0  0  0  0  0  0  0  0  0  0  0  0
    1.2877  -20.9056   58.7699 H   0  0  0  0  0  0  0  0  0  0  0  0
   -1.6193  -20.8701   58.4638 H   0  0  0  0  0  0  0  0  0  0  0  0
   -0.5366  -19.4762   58.6939 H   0  0  0  0  0  0  0  0  0  0  0  0
   -3.4435  -19.4407   58.3878 H   0  0  0  0  0  0  0  0  0  0  0  0
   -2.3609  -18.0467   58.6179 H   0  0  0  0  0  0  0  0  0  0  0  0
   -4.6520  -18.8457   60.4697 H   0  0  0  0  0  0  0  0  0  0  0  0
   -3.5693  -17.4518   60.6998 H   0  0  0  0  0  0  0  0  0  0  0  0
   -6.4763  -17.4163   60.3937 H   0  0  0  0  0  0  0  0  0  0  0  0
   -5.3936  -16.0223   60.6238 H   0  0  0  0  0  0  0  0  0  0  0  0
   -8.3005  -15.9869   60.3177 H   0  0  0  0  0  0  0  0  0  0  0  0
   -7.2179  -14.5929   60.5479 H   0  0  0  0  0  0  0  0  0  0  0  0
   -9.0577  -15.0416   58.1540 H   0  0  0  0  0  0  0  0  0  0  0  0
   -7.9750  -13.6477   58.3841 H   0  0  0  0  0  0  0  0  0  0  0  0
  -10.8820  -13.6122   58.0780 H   0  0  0  0  0  0  0  0  0  0  0  0
   -9.7993  -12.2182   58.3081 H   0  0  0  0  0  0  0  0  0  0  0  0
  -12.7062  -12.1827   58.0020 H   0  0  0  0  0  0  0  0  0  0  0  0
  -11.6236  -10.7888   58.2321 H   0  0  0  0  0  0  0  0  0  0  0  0
  -13.9147  -11.5878   60.0839 H   0  0  0  0  0  0  0  0  0  0  0  0
  -12.8320  -10.1938   60.3140 H   0  0  0  0  0  0  0  0  0  0  0  0
  -15.7390  -10.1583   60.0079 H   0  0  0  0  0  0  0  0  0  0  0  0
  -14.6563   -8.7644   60.2380 H   0  0  0  0  0  0  0  0  0  0  0  0
  -17.5632   -8.7289   59.9320 H   0  0  0  0  0  0  0  0  0  0  0  0
  -16.4806   -7.3349   60.1621 H   0  0  0  0  0  0  0  0  0  0  0  0
  -18.3204   -7.7837   57.7682 H   0  0  0  0  0  0  0  0  0  0  0  0
  -17.2377   -6.3897   57.9983 H   0  0  0  0  0  0  0  0  0  0  0  0
  -20.1447   -6.3542   57.6922 H   0  0  0  0  0  0  0  0  0  0  0  0
  -19.0620   -4.9603   57.9223 H   0  0  0  0  0  0  0  0  0  0  0  0
  -21.8772   -3.0740   59.9166 H   0  0  0  0  0  0  0  0  0  0  0  0
  -23.0185   -3.6540   61.5914 H   0  0  0  0  0  0  0  0  0  0  0  0
  -24.4346   -6.3775   61.5139 H   0  0  0  0  0  0  0  0  0  0  0  0
  -24.1178   -5.4179   62.9793 H   0  0  0  0  0  0  0  0  0  0  0  0
  -22.5148   -7.0679   62.6320 H   0  0  0  0  0  0  0  0  0  0  0  0
  -25.6656   -4.5647   60.5167 H   0  0  0  0  0  0  0  0  0  0  0  0
  -25.0828   -3.0322   62.8189 H   0  0  0  0  0  0  0  0  0  0  0  0
  -25.4601   -1.6984   60.8668 H   0  0  0  0  0  0  0  0  0  0  0  0
  -27.2815   -2.6756   60.1986 H   0  0  0  0  0  0  0  0  0  0  0  0
  -23.6038   -1.3523   59.8265 H   0  0  0  0  0  0  0  0  0  0  0  0
  -25.3338   -0.2464   58.8601 H   0  0  0  0  0  0  0  0  0  0  0  0
  -23.8529   -3.3271   57.5518 H   0  0  0  0  0  0  0  0  0  0  0  0
  -21.8288   -2.1942   57.1676 H   0  0  0  0  0  0  0  0  0  0  0  0
  1  2  1  0  0  0  0
  1143  1  0  0  0  0
  1144  1  0  0  0  0
  2  3  1  0  0  0  0
  2  5  1  0  0  0  0
  2  7  1  0  0  0  0
  3  4  1  0  0  0  0
  3145  1  0  0  0  0
  3146  1  0  0  0  0
  4147  1  0  0  0  0
  5  6  1  0  0  0  0
  5148  1  0  0  0  0
  5149  1  0  0  0  0
  6150  1  0  0  0  0
  7  8  1  0  0  0  0
  7151  1  0  0  0  0
  7152  1  0  0  0  0
  8  9  1  0  0  0  0
  9 10  1  0  0  0  0
  9153  1  0  0  0  0
  9154  1  0  0  0  0
 10 11  1  0  0  0  0
 10155  1  0  0  0  0
 10156  1  0  0  0  0
 11 12  1  0  0  0  0
 12 13  1  0  0  0  0
 12157  1  0  0  0  0
 12158  1  0  0  0  0
 13 14  1  0  0  0  0
 14 15  1  0  0  0  0
 14159  1  0  0  0  0
 14160  1  0  0  0  0
 15 16  1  0  0  0  0
 15161  1  0  0  0  0
 15162  1  0  0  0  0
 16 17  1  0  0  0  0
 17 18  1  0  0  0  0
 17163  1  0  0  0  0
 17164  1  0  0  0  0
 18 19  1  0  0  0  0
 19 20  1  0  0  0  0
 19165  1  0  0  0  0
 19166  1  0  0  0  0
 20 21  1  0  0  0  0
 20167  1  0  0  0  0
 20168  1  0  0  0  0
 21 22  1  0  0  0  0
 22 23  1  0  0  0  0
 22169  1  0  0  0  0
 22170  1  0  0  0  0
 23 24  1  0  0  0  0
 24 25  1  0  0  0  0
 24171  1  0  0  0  0
 24172  1  0  0  0  0
 25 26  1  0  0  0  0
 25173  1  0  0  0  0
 25174  1  0  0  0  0
 26 27  1  0  0  0  0
 27 28  1  0  0  0  0
 27175  1  0  0  0  0
 27176  1  0  0  0  0
 28 29  1  0  0  0  0
 29 30  1  0  0  0  0
 29177  1  0  0  0  0
 29178  1  0  0  0  0
 30 31  1  0  0  0  0
 30179  1  0  0  0  0
 30180  1  0  0  0  0
 31 32  1  0  0  0  0
 32 33  1  0  0  0  0
 32181  1  0  0  0  0
 32182  1  0  0  0  0
 33 34  1  0  0  0  0
 34 35  1  0  0  0  0
 34183  1  0  0  0  0
 34184  1  0  0  0  0
 35 36  1  0  0  0  0
 35185  1  0  0  0  0
 35186  1  0  0  0  0
 36 37  1  0  0  0  0
 37 38  1  0  0  0  0
 37187  1  0  0  0  0
 37188  1  0  0  0  0
 38 39  1  0  0  0  0
 39 40  1  0  0  0  0
 39189  1  0  0  0  0
 39190  1  0  0  0  0
 40 41  1  0  0  0  0
 40191  1  0  0  0  0
 40192  1  0  0  0  0
 41 42  1  0  0  0  0
 42 43  1  0  0  0  0
 42193  1  0  0  0  0
 42194  1  0  0  0  0
 43 44  1  0  0  0  0
 44 45  1  0  0  0  0
 44195  1  0  0  0  0
 44196  1  0  0  0  0
 45 46  1  0  0  0  0
 45197  1  0  0  0  0
 45198  1  0  0  0  0
 46 47  1  0  0  0  0
 47 48  1  0  0  0  0
 47199  1  0  0  0  0
 47200  1  0  0  0  0
 48 49  1  0  0  0  0
 49 50  1  0  0  0  0
 49201  1  0  0  0  0
 49202  1  0  0  0  0
 50 51  1  0  0  0  0
 50203  1  0  0  0  0
 50204  1  0  0  0  0
 51 52  1  0  0  0  0
 52 53  1  0  0  0  0
 52205  1  0  0  0  0
 52206  1  0  0  0  0
 53 54  1  0  0  0  0
 54 55  1  0  0  0  0
 54207  1  0  0  0  0
 54208  1  0  0  0  0
 55 56  1  0  0  0  0
 55209  1  0  0  0  0
 55210  1  0  0  0  0
 56 57  1  0  0  0  0
 57 58  1  0  0  0  0
 57211  1  0  0  0  0
 57212  1  0  0  0  0
 58 59  1  0  0  0  0
 59 60  1  0  0  0  0
 59213  1  0  0  0  0
 59214  1  0  0  0  0
 60 61  1  0  0  0  0
 60215  1  0  0  0  0
 60216  1  0  0  0  0
 61 62  1  0  0  0  0
 62 63  1  0  0  0  0
 62217  1  0  0  0  0
 62218  1  0  0  0  0
 63 64  1  0  0  0  0
 64 65  1  0  0  0  0
 64219  1  0  0  0  0
 64220  1  0  0  0  0
 65 66  1  0  0  0  0
 65221  1  0  0  0  0
 65222  1  0  0  0  0
 66 67  1  0  0  0  0
 67 68  1  0  0  0  0
 67223  1  0  0  0  0
 67224  1  0  0  0  0
 68 69  1  0  0  0  0
 69 70  1  0  0  0  0
 69225  1  0  0  0  0
 69226  1  0  0  0  0
 70 71  1  0  0  0  0
 70227  1  0  0  0  0
 70228  1  0  0  0  0
 71 72  1  0  0  0  0
 72 73  1  0  0  0  0
 72229  1  0  0  0  0
 72230  1  0  0  0  0
 73 74  1  0  0  0  0
 74 75  1  0  0  0  0
 74231  1  0  0  0  0
 74232  1  0  0  0  0
 75 76  1  0  0  0  0
 75233  1  0  0  0  0
 75234  1  0  0  0  0
 76 77  1  0  0  0  0
 77 78  1  0  0  0  0
 77235  1  0  0  0  0
 77236  1  0  0  0  0
 78 79  1  0  0  0  0
 79 80  1  0  0  0  0
 79237  1  0  0  0  0
 79238  1  0  0  0  0
 80 81  1  0  0  0  0
 80239  1  0  0  0  0
 80240  1  0  0  0  0
 81 82  1  0  0  0  0
 82 83  1  0  0  0  0
 82241  1  0  0  0  0
 82242  1  0  0  0  0
 83 84  1  0  0  0  0
 84 85  1  0  0  0  0
 84243  1  0  0  0  0
 84244  1  0  0  0  0
 85 86  1  0  0  0  0
 85245  1  0  0  0  0
 85246  1  0  0  0  0
 86 87  1  0  0  0  0
 87 88  1  0  0  0  0
 87247  1  0  0  0  0
 87248  1  0  0  0  0
 88 89  1  0  0  0  0
 89 90  1  0  0  0  0
 89249  1  0  0  0  0
 89250  1  0  0  0  0
 90 91  1  0  0  0  0
 90251  1  0  0  0  0
 90252  1  0  0  0  0
 91 92  1  0  0  0  0
 92 93  1  0  0  0  0
 92253  1  0  0  0  0
 92254  1  0  0  0  0
 93 94  1  0  0  0  0
 94 95  1  0  0  0  0
 94255  1  0  0  0  0
 94256  1  0  0  0  0
 95 96  1  0  0  0  0
 95257  1  0  0  0  0
 95258  1  0  0  0  0
 96 97  1  0  0  0  0
 97 98  1  0  0  0  0
 97259  1  0  0  0  0
 97260  1  0  0  0  0
 98 99  1  0  0  0  0
 99100  1  0  0  0  0
 99261  1  0  0  0  0
 99262  1  0  0  0  0
100101  1  0  0  0  0
100263  1  0  0  0  0
100264  1  0  0  0  0
101102  1  0  0  0  0
102103  1  0  0  0  0
102265  1  0  0  0  0
102266  1  0  0  0  0
103104  1  0  0  0  0
104105  1  0  0  0  0
104267  1  0  0  0  0
104268  1  0  0  0  0
105106  1  0  0  0  0
105269  1  0  0  0  0
105270  1  0  0  0  0
106107  1  0  0  0  0
107108  1  0  0  0  0
107271  1  0  0  0  0
107272  1  0  0  0  0
108109  1  0  0  0  0
109110  1  0  0  0  0
109273  1  0  0  0  0
109274  1  0  0  0  0
110111  1  0  0  0  0
110275  1  0  0  0  0
110276  1  0  0  0  0
111112  1  0  0  0  0
112113  1  0  0  0  0
112277  1  0  0  0  0
112278  1  0  0  0  0
113114  1  0  0  0  0
114115  1  0  0  0  0
114279  1  0  0  0  0
114280  1  0  0  0  0
115116  1  0  0  0  0
115281  1  0  0  0  0
115282  1  0  0  0  0
116117  1  0  0  0  0
117118  1  0  0  0  0
117283  1  0  0  0  0
117284  1  0  0  0  0
118119  1  0  0  0  0
119120  1  0  0  0  0
119285  1  0  0  0  0
119286  1  0  0  0  0
120121  1  0  0  0  0
120287  1  0  0  0  0
120288  1  0  0  0  0
121122  1  0  0  0  0
122123  1  0  0  0  0
122289  1  0  0  0  0
122290  1  0  0  0  0
123124  1  0  0  0  0
124125  1  0  0  0  0
124291  1  0  0  0  0
124292  1  0  0  0  0
125126  1  0  0  0  0
125293  1  0  0  0  0
125294  1  0  0  0  0
126127  1  0  0  0  0
127128  1  0  0  0  0
127295  1  0  0  0  0
127296  1  0  0  0  0
128129  1  0  0  0  0
130129  1  0  0  0  0
130131  1  0  0  0  0
130141  1  0  0  0  0
130297  1  0  0  0  0
131132  1  0  0  0  0
132133  1  0  0  0  0
132135  1  0  0  0  0
132298  1  0  0  0  0
133134  1  0  0  0  0
133299  1  0  0  0  0
133300  1  0  0  0  0
134301  1  0  0  0  0
135136  1  0  0  0  0
135137  1  0  0  0  0
135302  1  0  0  0  0
136303  1  0  0  0  0
137138  1  0  0  0  0
137139  1  0  0  0  0
137304  1  0  0  0  0
138305  1  0  0  0  0
139140  1  0  0  0  0
139141  1  0  0  0  0
139306  1  0  0  0  0
140307  1  0  0  0  0
141142  1  0  0  0  0
141308  1  0  0  0  0
142309  1  0  0  0  0
M  END
