@<TRIPOS>MOLECULE
lig
 309 309 0 0 0
SMALL
GASTEIGER

@<TRIPOS>ATOM
      1 N          91.5575  -94.6503   64.6591 N.3     1  UNL11      -0.3192
      2 C          92.3725  -93.6465   63.9769 C.3     1  UNL11       0.0867
      3 C          93.4483  -94.3443   63.1424 C.3     1  UNL11       0.0665
      4 O          92.8295  -95.1853   62.1800 O.3     1  UNL11      -0.3930
      5 C          93.0393  -92.7404   65.0139 C.3     1  UNL11       0.0665
      6 O          93.8650  -93.5221   65.8644 O.3     1  UNL11      -0.3930
      7 C          91.4827  -92.8041   63.0605 C.3     1  UNL11       0.0701
      8 O          90.4842  -92.1565   63.8350 O.3     1  UNL11      -0.3755
      9 C          89.6585  -91.3747   62.9845 C.3     1  UNL11       0.0712
     10 C          88.5826  -90.6768   63.8191 C.3     1  UNL11       0.0737
     11 O          87.7568  -89.8951   62.9686 O.3     1  UNL11      -0.3518
     12 C          86.7583  -89.2474   63.7431 C.3     1  UNL11       0.1483
     13 O          85.9326  -88.4656   62.8926 O.3     1  UNL11      -0.3518
     14 C          84.9340  -87.8180   63.6671 C.3     1  UNL11       0.0738
     15 C          84.0443  -86.9756   62.7507 C.3     1  UNL11       0.0738
     16 O          83.0458  -86.3280   63.5252 O.3     1  UNL11      -0.3518
     17 C          82.2200  -85.5462   62.6747 C.3     1  UNL11       0.1483
     18 O          81.2215  -84.8985   63.4492 O.3     1  UNL11      -0.3518
     19 C          80.3958  -84.1167   62.5987 C.3     1  UNL11       0.0738
     20 C          79.3199  -83.4189   63.4333 C.3     1  UNL11       0.0738
     21 O          78.4941  -82.6371   62.5828 O.3     1  UNL11      -0.3518
     22 C          77.4956  -81.9894   63.3573 C.3     1  UNL11       0.1483
     23 O          76.6699  -81.2077   62.5068 O.3     1  UNL11      -0.3518
     24 C          75.6714  -80.5600   63.2813 C.3     1  UNL11       0.0738
     25 C          74.7816  -79.7177   62.3649 C.3     1  UNL11       0.0738
     26 O          73.7831  -79.0700   63.1394 O.3     1  UNL11      -0.3518
     27 C          72.9573  -78.2882   62.2889 C.3     1  UNL11       0.1483
     28 O          71.9588  -77.6406   63.0634 O.3     1  UNL11      -0.3518
     29 C          71.1331  -76.8588   62.2129 C.3     1  UNL11       0.0738
     30 C          70.0572  -76.1609   63.0475 C.3     1  UNL11       0.0738
     31 O          69.2314  -75.3792   62.1970 O.3     1  UNL11      -0.3518
     32 C          68.2329  -74.7315   62.9715 C.3     1  UNL11       0.1483
     33 O          67.4072  -73.9497   62.1210 O.3     1  UNL11      -0.3518
     34 C          66.4087  -73.3020   62.8955 C.3     1  UNL11       0.0738
     35 C          65.5189  -72.4597   61.9791 C.3     1  UNL11       0.0738
     36 O          64.5204  -71.8120   62.7536 O.3     1  UNL11      -0.3518
     37 C          63.6946  -71.0303   61.9031 C.3     1  UNL11       0.1483
     38 O          62.6961  -70.3826   62.6776 O.3     1  UNL11      -0.3518
     39 C          61.8704  -69.6008   61.8271 C.3     1  UNL11       0.0738
     40 C          60.7945  -68.9030   62.6617 C.3     1  UNL11       0.0738
     41 O          59.9687  -68.1212   61.8112 O.3     1  UNL11      -0.3518
     42 C          58.9702  -67.4735   62.5857 C.3     1  UNL11       0.1483
     43 O          58.1445  -66.6918   61.7352 O.3     1  UNL11      -0.3518
     44 C          57.1460  -66.0441   62.5097 C.3     1  UNL11       0.0738
     45 C          56.2562  -65.2018   61.5933 C.3     1  UNL11       0.0738
     46 O          55.2577  -64.5541   62.3678 O.3     1  UNL11      -0.3518
     47 C          54.4320  -63.7723   61.5173 C.3     1  UNL11       0.1483
     48 O          53.4334  -63.1246   62.2918 O.3     1  UNL11      -0.3518
     49 C          52.6077  -62.3429   61.4413 C.3     1  UNL11       0.0738
     50 C          51.5318  -61.6450   62.2759 C.3     1  UNL11       0.0738
     51 O          50.7060  -60.8633   61.4254 O.3     1  UNL11      -0.3518
     52 C          49.7075  -60.2156   62.1999 C.3     1  UNL11       0.1483
     53 O          48.8818  -59.4338   61.3494 O.3     1  UNL11      -0.3518
     54 C          47.8833  -58.7861   62.1239 C.3     1  UNL11       0.0738
     55 C          46.9935  -57.9438   61.2075 C.3     1  UNL11       0.0738
     56 O          45.9950  -57.2961   61.9820 O.3     1  UNL11      -0.3518
     57 C          45.1693  -56.5144   61.1315 C.3     1  UNL11       0.1483
     58 O          44.1707  -55.8667   61.9061 O.3     1  UNL11      -0.3518
     59 C          43.3450  -55.0849   61.0555 C.3     1  UNL11       0.0738
     60 C          42.2691  -54.3871   61.8901 C.3     1  UNL11       0.0738
     61 O          41.4434  -53.6053   61.0396 O.3     1  UNL11      -0.3518
     62 C          40.4448  -52.9576   61.8141 C.3     1  UNL11       0.1483
     63 O          39.6191  -52.1759   60.9636 O.3     1  UNL11      -0.3518
     64 C          38.6206  -51.5282   61.7381 C.3     1  UNL11       0.0738
     65 C          37.7308  -50.6859   60.8217 C.3     1  UNL11       0.0738
     66 O          36.7323  -50.0382   61.5962 O.3     1  UNL11      -0.3518
     67 C          35.9066  -49.2564   60.7457 C.3     1  UNL11       0.1483
     68 O          34.9080  -48.6087   61.5203 O.3     1  UNL11      -0.3518
     69 C          34.0823  -47.8270   60.6697 C.3     1  UNL11       0.0738
     70 C          33.0064  -47.1291   61.5043 C.3     1  UNL11       0.0738
     71 O          32.1807  -46.3474   60.6538 O.3     1  UNL11      -0.3518
     72 C          31.1821  -45.6997   61.4283 C.3     1  UNL11       0.1483
     73 O          30.3564  -44.9179   60.5778 O.3     1  UNL11      -0.3518
     74 C          29.3579  -44.2702   61.3523 C.3     1  UNL11       0.0738
     75 C          28.4681  -43.4279   60.4359 C.3     1  UNL11       0.0738
     76 O          27.4696  -42.7802   61.2104 O.3     1  UNL11      -0.3518
     77 C          26.6439  -41.9985   60.3599 C.3     1  UNL11       0.1483
     78 O          25.6454  -41.3508   61.1345 O.3     1  UNL11      -0.3518
     79 C          24.8196  -40.5690   60.2839 C.3     1  UNL11       0.0738
     80 C          23.7437  -39.8712   61.1185 C.3     1  UNL11       0.0738
     81 O          22.9180  -39.0894   60.2680 O.3     1  UNL11      -0.3518
     82 C          21.9195  -38.4417   61.0425 C.3     1  UNL11       0.1483
     83 O          21.0937  -37.6600   60.1920 O.3     1  UNL11      -0.3518
     84 C          20.0952  -37.0123   60.9665 C.3     1  UNL11       0.0738
     85 C          19.2054  -36.1700   60.0501 C.3     1  UNL11       0.0738
     86 O          18.2069  -35.5223   60.8246 O.3     1  UNL11      -0.3518
     87 C          17.3812  -34.7405   59.9741 C.3     1  UNL11       0.1483
     88 O          16.3827  -34.0928   60.7487 O.3     1  UNL11      -0.3518
     89 C          15.5569  -33.3111   59.8982 C.3     1  UNL11       0.0738
     90 C          14.4810  -32.6132   60.7327 C.3     1  UNL11       0.0738
     91 O          13.6553  -31.8315   59.8822 O.3     1  UNL11      -0.3518
     92 C          12.6568  -31.1838   60.6567 C.3     1  UNL11       0.1483
     93 O          11.8310  -30.4020   59.8062 O.3     1  UNL11      -0.3518
     94 C          10.8325  -29.7543   60.5807 C.3     1  UNL11       0.0738
     95 C           9.9427  -28.9120   59.6643 C.3     1  UNL11       0.0738
     96 O           8.9442  -28.2643   60.4388 O.3     1  UNL11      -0.3518
     97 C           8.1185  -27.4826   59.5883 C.3     1  UNL11       0.1483
     98 O           7.1200  -26.8349   60.3629 O.3     1  UNL11      -0.3518
     99 C           6.2942  -26.0531   59.5124 C.3     1  UNL11       0.0738
    100 C           5.2183  -25.3553   60.3469 C.3     1  UNL11       0.0738
    101 O           4.3926  -24.5735   59.4964 O.3     1  UNL11      -0.3518
    102 C           3.3941  -23.9258   60.2709 C.3     1  UNL11       0.1483
    103 O           2.5683  -23.1441   59.4204 O.3     1  UNL11      -0.3518
    104 C           1.5698  -22.4964   60.1949 C.3     1  UNL11       0.0738
    105 C           0.6801  -21.6541   59.2785 C.3     1  UNL11       0.0738
    106 O          -0.3185  -21.0064   60.0530 O.3     1  UNL11      -0.3518
    107 C          -1.1442  -20.2246   59.2025 C.3     1  UNL11       0.1483
    108 O          -2.1427  -19.5769   59.9771 O.3     1  UNL11      -0.3518
    109 C          -2.9685  -18.7952   59.1266 C.3     1  UNL11       0.0738
    110 C          -4.0444  -18.0973   59.9611 C.3     1  UNL11       0.0738
    111 O          -4.8701  -17.3155   59.1106 O.3     1  UNL11      -0.3518
    112 C          -5.8686  -16.6679   59.8851 C.3     1  UNL11       0.1483
    113 O          -6.6944  -15.8861   59.0346 O.3     1  UNL11      -0.3518
    114 C          -7.6929  -15.2384   59.8091 C.3     1  UNL11       0.0738
    115 C          -8.5826  -14.3961   58.8927 C.3     1  UNL11       0.0738
    116 O          -9.5812  -13.7484   59.6672 O.3     1  UNL11      -0.3518
    117 C         -10.4069  -12.9667   58.8167 C.3     1  UNL11       0.1483
    118 O         -11.4054  -12.3190   59.5913 O.3     1  UNL11      -0.3518
    119 C         -12.2312  -11.5372   58.7408 C.3     1  UNL11       0.0738
    120 C         -13.3071  -10.8394   59.5753 C.3     1  UNL11       0.0738
    121 O         -14.1328  -10.0576   58.7248 O.3     1  UNL11      -0.3518
    122 C         -15.1313   -9.4099   59.4993 C.3     1  UNL11       0.1483
    123 O         -15.9571   -8.6281   58.6488 O.3     1  UNL11      -0.3518
    124 C         -16.9556   -7.9805   59.4233 C.3     1  UNL11       0.0738
    125 C         -17.8453   -7.1381   58.5069 C.3     1  UNL11       0.0739
    126 O         -18.8439   -6.4905   59.2814 O.3     1  UNL11      -0.3488
    127 C         -19.6696   -5.7087   58.4309 C.3     1  UNL11       0.1819
    128 O         -20.6681   -5.0610   59.2055 O.3     1  UNL11      -0.2037
    129 O         -21.4299   -4.3398   58.4208 O.3     1  UNL11      -0.1978
    130 C         -22.4335   -3.6888   59.1993 C.3     1  UNL11       0.2214
    131 O         -23.1919   -4.7281   59.8375 O.3     1  UNL11      -0.3383
    132 C         -23.6690   -4.3999   61.1346 C.3     1  UNL11       0.1131
    133 C         -23.7517   -5.6698   61.9840 C.3     1  UNL11       0.0730
    134 O         -22.4618   -6.2545   62.0880 O.3     1  UNL11      -0.3924
    135 C         -25.0680   -3.7875   60.9931 C.3     1  UNL11       0.1118
    136 O         -25.6462   -3.6258   62.2798 O.3     1  UNL11      -0.3865
    137 C         -25.3132   -2.5074   60.1512 C.3     1  UNL11       0.1119
    138 O         -26.5813   -2.5931   59.5179 O.3     1  UNL11      -0.3865
    139 C         -24.2815   -1.8910   59.1642 C.3     1  UNL11       0.1142
    140 O         -24.9359   -0.9583   58.3167 O.3     1  UNL11      -0.3864
    141 C         -23.3243   -2.7609   58.3279 C.3     1  UNL11       0.1369
    142 O         -22.5079   -1.7655   57.7292 O.3     1  UNL11      -0.3840
    143 H          90.8388  -94.1842   65.2166 H       1  UNL11       0.1189
    144 H          91.1120  -95.2556   63.9665 H       1  UNL11       0.1189
    145 H          94.0560  -93.5959   62.6337 H       1  UNL11       0.0577
    146 H          94.0822  -94.9444   63.7952 H       1  UNL11       0.0577
    147 H          93.5186  -95.6323   61.6455 H       1  UNL11       0.2095
    148 H          92.2728  -92.2432   65.6084 H       1  UNL11       0.0577
    149 H          93.6469  -91.9919   64.5052 H       1  UNL11       0.0577
    150 H          94.2921  -92.9417   66.5286 H       1  UNL11       0.2095
    151 H          91.0077  -93.4497   62.3218 H       1  UNL11       0.0580
    152 H          92.0904  -92.0557   62.5519 H       1  UNL11       0.0580
    153 H          89.1834  -92.0202   62.2458 H       1  UNL11       0.0583
    154 H          90.2661  -90.6263   62.4759 H       1  UNL11       0.0583
    155 H          87.9750  -91.4253   64.3277 H       1  UNL11       0.0584
    156 H          89.0576  -90.0313   64.5578 H       1  UNL11       0.0584
    157 H          86.1507  -89.9958   64.2517 H       1  UNL11       0.0871
    158 H          87.2334  -88.6019   64.4818 H       1  UNL11       0.0871
    159 H          84.3264  -88.5664   64.1757 H       1  UNL11       0.0584
    160 H          85.4091  -87.1724   64.4058 H       1  UNL11       0.0584
    161 H          83.5693  -87.6212   62.0120 H       1  UNL11       0.0584
    162 H          84.6520  -86.2272   62.2421 H       1  UNL11       0.0584
    163 H          81.7450  -86.1917   61.9360 H       1  UNL11       0.0871
    164 H          82.8277  -84.7977   62.1661 H       1  UNL11       0.0871
    165 H          79.9207  -84.7623   61.8600 H       1  UNL11       0.0584
    166 H          81.0034  -83.3683   62.0901 H       1  UNL11       0.0584
    167 H          78.7123  -84.1673   63.9419 H       1  UNL11       0.0584
    168 H          79.7949  -82.7734   64.1720 H       1  UNL11       0.0584
    169 H          76.8880  -82.7379   63.8659 H       1  UNL11       0.0871
    170 H          77.9707  -81.3439   64.0960 H       1  UNL11       0.0871
    171 H          75.0637  -81.3084   63.7899 H       1  UNL11       0.0584
    172 H          76.1464  -79.9145   64.0200 H       1  UNL11       0.0584
    173 H          74.3066  -80.3632   61.6262 H       1  UNL11       0.0584
    174 H          75.3893  -78.9692   61.8563 H       1  UNL11       0.0584
    175 H          72.4823  -78.9338   61.5502 H       1  UNL11       0.0871
    176 H          73.5650  -77.5398   61.7803 H       1  UNL11       0.0871
    177 H          70.6580  -77.5043   61.4742 H       1  UNL11       0.0584
    178 H          71.7407  -76.1104   61.7043 H       1  UNL11       0.0584
    179 H          69.4496  -76.9094   63.5561 H       1  UNL11       0.0584
    180 H          70.5322  -75.5154   63.7862 H       1  UNL11       0.0584
    181 H          67.6253  -75.4799   63.4801 H       1  UNL11       0.0871
    182 H          68.7080  -74.0860   63.7102 H       1  UNL11       0.0871
    183 H          65.8010  -74.0505   63.4041 H       1  UNL11       0.0584
    184 H          66.8837  -72.6565   63.6342 H       1  UNL11       0.0584
    185 H          65.0439  -73.1052   61.2404 H       1  UNL11       0.0584
    186 H          66.1266  -71.7113   61.4705 H       1  UNL11       0.0584
    187 H          63.2196  -71.6758   61.1644 H       1  UNL11       0.0871
    188 H          64.3023  -70.2818   61.3945 H       1  UNL11       0.0871
    189 H          61.3953  -70.2464   61.0884 H       1  UNL11       0.0584
    190 H          62.4780  -68.8524   61.3185 H       1  UNL11       0.0584
    191 H          60.1869  -69.6514   63.1703 H       1  UNL11       0.0584
    192 H          61.2696  -68.2575   63.4004 H       1  UNL11       0.0584
    193 H          58.3626  -68.2220   63.0943 H       1  UNL11       0.0871
    194 H          59.4453  -66.8280   63.3244 H       1  UNL11       0.0871
    195 H          56.5383  -66.7925   63.0183 H       1  UNL11       0.0584
    196 H          57.6210  -65.3986   63.2484 H       1  UNL11       0.0584
    197 H          55.7812  -65.8473   60.8546 H       1  UNL11       0.0584
    198 H          56.8639  -64.4533   61.0847 H       1  UNL11       0.0584
    199 H          53.9569  -64.4178   60.7786 H       1  UNL11       0.0871
    200 H          55.0396  -63.0239   61.0087 H       1  UNL11       0.0871
    201 H          52.1326  -62.9884   60.7026 H       1  UNL11       0.0584
    202 H          53.2153  -61.5944   60.9327 H       1  UNL11       0.0584
    203 H          50.9242  -62.3935   62.7845 H       1  UNL11       0.0584
    204 H          52.0069  -60.9995   63.0146 H       1  UNL11       0.0584
    205 H          49.0999  -60.9640   62.7085 H       1  UNL11       0.0871
    206 H          50.1826  -59.5701   62.9386 H       1  UNL11       0.0871
    207 H          47.2756  -59.5346   62.6325 H       1  UNL11       0.0584
    208 H          48.3583  -58.1406   62.8626 H       1  UNL11       0.0584
    209 H          46.5185  -58.5893   60.4688 H       1  UNL11       0.0584
    210 H          47.6012  -57.1954   60.6989 H       1  UNL11       0.0584
    211 H          44.6942  -57.1599   60.3928 H       1  UNL11       0.0871
    212 H          45.7769  -55.7659   60.6229 H       1  UNL11       0.0871
    213 H          42.8699  -55.7305   60.3168 H       1  UNL11       0.0584
    214 H          43.9526  -54.3365   60.5469 H       1  UNL11       0.0584
    215 H          41.6615  -55.1355   62.3987 H       1  UNL11       0.0584
    216 H          42.7442  -53.7416   62.6288 H       1  UNL11       0.0584
    217 H          39.8372  -53.7061   62.3227 H       1  UNL11       0.0871
    218 H          40.9199  -52.3121   62.5528 H       1  UNL11       0.0871
    219 H          38.0129  -52.2766   62.2467 H       1  UNL11       0.0584
    220 H          39.0956  -50.8827   62.4768 H       1  UNL11       0.0584
    221 H          37.2558  -51.3314   60.0830 H       1  UNL11       0.0584
    222 H          38.3385  -49.9374   60.3131 H       1  UNL11       0.0584
    223 H          35.4315  -49.9019   60.0070 H       1  UNL11       0.0871
    224 H          36.5142  -48.5080   60.2371 H       1  UNL11       0.0871
    225 H          33.6072  -48.4725   59.9310 H       1  UNL11       0.0584
    226 H          34.6899  -47.0785   60.1611 H       1  UNL11       0.0584
    227 H          32.3988  -47.8776   62.0129 H       1  UNL11       0.0584
    228 H          33.4815  -46.4836   62.2430 H       1  UNL11       0.0584
    229 H          30.5745  -46.4481   61.9369 H       1  UNL11       0.0871
    230 H          31.6572  -45.0542   62.1670 H       1  UNL11       0.0871
    231 H          28.7502  -45.0187   61.8609 H       1  UNL11       0.0584
    232 H          29.8329  -43.6247   62.0910 H       1  UNL11       0.0584
    233 H          27.9931  -44.0734   59.6972 H       1  UNL11       0.0584
    234 H          29.0758  -42.6795   59.9273 H       1  UNL11       0.0584
    235 H          26.1688  -42.6440   59.6212 H       1  UNL11       0.0871
    236 H          27.2515  -41.2500   59.8513 H       1  UNL11       0.0871
    237 H          24.3445  -41.2145   59.5452 H       1  UNL11       0.0584
    238 H          25.4272  -39.8206   59.7753 H       1  UNL11       0.0584
    239 H          23.1361  -40.6196   61.6271 H       1  UNL11       0.0584
    240 H          24.2188  -39.2256   61.8572 H       1  UNL11       0.0584
    241 H          21.3118  -39.1902   61.5511 H       1  UNL11       0.0871
    242 H          22.3945  -37.7962   61.7812 H       1  UNL11       0.0871
    243 H          19.4875  -37.7607   61.4751 H       1  UNL11       0.0584
    244 H          20.5702  -36.3668   61.7052 H       1  UNL11       0.0584
    245 H          18.7304  -36.8155   59.3114 H       1  UNL11       0.0584
    246 H          19.8131  -35.4215   59.5415 H       1  UNL11       0.0584
    247 H          16.9061  -35.3860   59.2354 H       1  UNL11       0.0871
    248 H          17.9888  -33.9921   59.4655 H       1  UNL11       0.0871
    249 H          15.0819  -33.9566   59.1594 H       1  UNL11       0.0584
    250 H          16.1645  -32.5626   59.3895 H       1  UNL11       0.0584
    251 H          13.8734  -33.3617   61.2413 H       1  UNL11       0.0584
    252 H          14.9561  -31.9677   61.4714 H       1  UNL11       0.0584
    253 H          12.0491  -31.9322   61.1653 H       1  UNL11       0.0871
    254 H          13.1318  -30.5382   61.3954 H       1  UNL11       0.0871
    255 H          10.2248  -30.5028   61.0893 H       1  UNL11       0.0584
    256 H          11.3075  -29.1088   61.3194 H       1  UNL11       0.0584
    257 H           9.4677  -29.5575   58.9256 H       1  UNL11       0.0584
    258 H          10.5504  -28.1636   59.1557 H       1  UNL11       0.0584
    259 H           7.6434  -28.1281   58.8496 H       1  UNL11       0.0871
    260 H           8.7261  -26.7341   59.0797 H       1  UNL11       0.0871
    261 H           5.8192  -26.6986   58.7736 H       1  UNL11       0.0584
    262 H           6.9018  -25.3047   59.0037 H       1  UNL11       0.0584
    263 H           4.6107  -26.1037   60.8555 H       1  UNL11       0.0584
    264 H           5.6934  -24.7097   61.0856 H       1  UNL11       0.0584
    265 H           2.7864  -24.6743   60.7795 H       1  UNL11       0.0871
    266 H           3.8691  -23.2803   61.0096 H       1  UNL11       0.0871
    267 H           0.9621  -23.2448   60.7035 H       1  UNL11       0.0584
    268 H           2.0448  -21.8509   60.9337 H       1  UNL11       0.0584
    269 H           0.2050  -22.2996   58.5398 H       1  UNL11       0.0584
    270 H           1.2877  -20.9056   58.7699 H       1  UNL11       0.0584
    271 H          -1.6193  -20.8701   58.4638 H       1  UNL11       0.0871
    272 H          -0.5366  -19.4762   58.6939 H       1  UNL11       0.0871
    273 H          -3.4435  -19.4407   58.3878 H       1  UNL11       0.0584
    274 H          -2.3609  -18.0467   58.6179 H       1  UNL11       0.0584
    275 H          -4.6520  -18.8457   60.4697 H       1  UNL11       0.0584
    276 H          -3.5693  -17.4518   60.6998 H       1  UNL11       0.0584
    277 H          -6.4763  -17.4163   60.3937 H       1  UNL11       0.0871
    278 H          -5.3936  -16.0223   60.6238 H       1  UNL11       0.0871
    279 H          -8.3005  -15.9869   60.3177 H       1  UNL11       0.0584
    280 H          -7.2179  -14.5929   60.5479 H       1  UNL11       0.0584
    281 H          -9.0577  -15.0416   58.1540 H       1  UNL11       0.0584
    282 H          -7.9750  -13.6477   58.3841 H       1  UNL11       0.0584
    283 H         -10.8820  -13.6122   58.0780 H       1  UNL11       0.0871
    284 H          -9.7993  -12.2182   58.3081 H       1  UNL11       0.0871
    285 H         -12.7062  -12.1827   58.0020 H       1  UNL11       0.0584
    286 H         -11.6236  -10.7888   58.2321 H       1  UNL11       0.0584
    287 H         -13.9147  -11.5878   60.0839 H       1  UNL11       0.0584
    288 H         -12.8320  -10.1938   60.3140 H       1  UNL11       0.0584
    289 H         -15.7390  -10.1583   60.0079 H       1  UNL11       0.0871
    290 H         -14.6563   -8.7644   60.2380 H       1  UNL11       0.0871
    291 H         -17.5632   -8.7289   59.9320 H       1  UNL11       0.0584
    292 H         -16.4806   -7.3349   60.1621 H       1  UNL11       0.0584
    293 H         -18.3204   -7.7837   57.7682 H       1  UNL11       0.0584
    294 H         -17.2377   -6.3897   57.9983 H       1  UNL11       0.0584
    295 H         -20.1447   -6.3542   57.6922 H       1  UNL11       0.0902
    296 H         -19.0620   -4.9603   57.9223 H       1  UNL11       0.0902
    297 H         -21.8772   -3.0740   59.9166 H       1  UNL11       0.0968
    298 H         -23.0185   -3.6540   61.5914 H       1  UNL11       0.0647
    299 H         -24.4346   -6.3775   61.5139 H       1  UNL11       0.0584
    300 H         -24.1178   -5.4179   62.9793 H       1  UNL11       0.0584
    301 H         -22.5148   -7.0679   62.6320 H       1  UNL11       0.2095
    302 H         -25.6656   -4.5647   60.5167 H       1  UNL11       0.0647
    303 H         -25.0828   -3.0322   62.8189 H       1  UNL11       0.2100
    304 H         -25.4601   -1.6984   60.8668 H       1  UNL11       0.0647
    305 H         -27.2815   -2.6756   60.1986 H       1  UNL11       0.2100
    306 H         -23.6038   -1.3523   59.8265 H       1  UNL11       0.0648
    307 H         -25.3338   -0.2464   58.8601 H       1  UNL11       0.2100
    308 H         -23.8529   -3.3271   57.5518 H       1  UNL11       0.0672
    309 H         -21.8288   -2.1942   57.1676 H       1  UNL11       0.2101
@<TRIPOS>BOND
     1     1     2    1
     2     1   143    1
     3     1   144    1
     4     2     3    1
     5     2     5    1
     6     2     7    1
     7     3     4    1
     8     3   145    1
     9     3   146    1
    10     4   147    1
    11     5     6    1
    12     5   148    1
    13     5   149    1
    14     6   150    1
    15     7     8    1
    16     7   151    1
    17     7   152    1
    18     8     9    1
    19     9    10    1
    20     9   153    1
    21     9   154    1
    22    10    11    1
    23    10   155    1
    24    10   156    1
    25    11    12    1
    26    12    13    1
    27    12   157    1
    28    12   158    1
    29    13    14    1
    30    14    15    1
    31    14   159    1
    32    14   160    1
    33    15    16    1
    34    15   161    1
    35    15   162    1
    36    16    17    1
    37    17    18    1
    38    17   163    1
    39    17   164    1
    40    18    19    1
    41    19    20    1
    42    19   165    1
    43    19   166    1
    44    20    21    1
    45    20   167    1
    46    20   168    1
    47    21    22    1
    48    22    23    1
    49    22   169    1
    50    22   170    1
    51    23    24    1
    52    24    25    1
    53    24   171    1
    54    24   172    1
    55    25    26    1
    56    25   173    1
    57    25   174    1
    58    26    27    1
    59    27    28    1
    60    27   175    1
    61    27   176    1
    62    28    29    1
    63    29    30    1
    64    29   177    1
    65    29   178    1
    66    30    31    1
    67    30   179    1
    68    30   180    1
    69    31    32    1
    70    32    33    1
    71    32   181    1
    72    32   182    1
    73    33    34    1
    74    34    35    1
    75    34   183    1
    76    34   184    1
    77    35    36    1
    78    35   185    1
    79    35   186    1
    80    36    37    1
    81    37    38    1
    82    37   187    1
    83    37   188    1
    84    38    39    1
    85    39    40    1
    86    39   189    1
    87    39   190    1
    88    40    41    1
    89    40   191    1
    90    40   192    1
    91    41    42    1
    92    42    43    1
    93    42   193    1
    94    42   194    1
    95    43    44    1
    96    44    45    1
    97    44   195    1
    98    44   196    1
    99    45    46    1
   100    45   197    1
   101    45   198    1
   102    46    47    1
   103    47    48    1
   104    47   199    1
   105    47   200    1
   106    48    49    1
   107    49    50    1
   108    49   201    1
   109    49   202    1
   110    50    51    1
   111    50   203    1
   112    50   204    1
   113    51    52    1
   114    52    53    1
   115    52   205    1
   116    52   206    1
   117    53    54    1
   118    54    55    1
   119    54   207    1
   120    54   208    1
   121    55    56    1
   122    55   209    1
   123    55   210    1
   124    56    57    1
   125    57    58    1
   126    57   211    1
   127    57   212    1
   128    58    59    1
   129    59    60    1
   130    59   213    1
   131    59   214    1
   132    60    61    1
   133    60   215    1
   134    60   216    1
   135    61    62    1
   136    62    63    1
   137    62   217    1
   138    62   218    1
   139    63    64    1
   140    64    65    1
   141    64   219    1
   142    64   220    1
   143    65    66    1
   144    65   221    1
   145    65   222    1
   146    66    67    1
   147    67    68    1
   148    67   223    1
   149    67   224    1
   150    68    69    1
   151    69    70    1
   152    69   225    1
   153    69   226    1
   154    70    71    1
   155    70   227    1
   156    70   228    1
   157    71    72    1
   158    72    73    1
   159    72   229    1
   160    72   230    1
   161    73    74    1
   162    74    75    1
   163    74   231    1
   164    74   232    1
   165    75    76    1
   166    75   233    1
   167    75   234    1
   168    76    77    1
   169    77    78    1
   170    77   235    1
   171    77   236    1
   172    78    79    1
   173    79    80    1
   174    79   237    1
   175    79   238    1
   176    80    81    1
   177    80   239    1
   178    80   240    1
   179    81    82    1
   180    82    83    1
   181    82   241    1
   182    82   242    1
   183    83    84    1
   184    84    85    1
   185    84   243    1
   186    84   244    1
   187    85    86    1
   188    85   245    1
   189    85   246    1
   190    86    87    1
   191    87    88    1
   192    87   247    1
   193    87   248    1
   194    88    89    1
   195    89    90    1
   196    89   249    1
   197    89   250    1
   198    90    91    1
   199    90   251    1
   200    90   252    1
   201    91    92    1
   202    92    93    1
   203    92   253    1
   204    92   254    1
   205    93    94    1
   206    94    95    1
   207    94   255    1
   208    94   256    1
   209    95    96    1
   210    95   257    1
   211    95   258    1
   212    96    97    1
   213    97    98    1
   214    97   259    1
   215    97   260    1
   216    98    99    1
   217    99   100    1
   218    99   261    1
   219    99   262    1
   220   100   101    1
   221   100   263    1
   222   100   264    1
   223   101   102    1
   224   102   103    1
   225   102   265    1
   226   102   266    1
   227   103   104    1
   228   104   105    1
   229   104   267    1
   230   104   268    1
   231   105   106    1
   232   105   269    1
   233   105   270    1
   234   106   107    1
   235   107   108    1
   236   107   271    1
   237   107   272    1
   238   108   109    1
   239   109   110    1
   240   109   273    1
   241   109   274    1
   242   110   111    1
   243   110   275    1
   244   110   276    1
   245   111   112    1
   246   112   113    1
   247   112   277    1
   248   112   278    1
   249   113   114    1
   250   114   115    1
   251   114   279    1
   252   114   280    1
   253   115   116    1
   254   115   281    1
   255   115   282    1
   256   116   117    1
   257   117   118    1
   258   117   283    1
   259   117   284    1
   260   118   119    1
   261   119   120    1
   262   119   285    1
   263   119   286    1
   264   120   121    1
   265   120   287    1
   266   120   288    1
   267   121   122    1
   268   122   123    1
   269   122   289    1
   270   122   290    1
   271   123   124    1
   272   124   125    1
   273   124   291    1
   274   124   292    1
   275   125   126    1
   276   125   293    1
   277   125   294    1
   278   126   127    1
   279   127   128    1
   280   127   295    1
   281   127   296    1
   282   128   129    1
   283   130   129    1
   284   130   131    1
   285   130   141    1
   286   130   297    1
   287   131   132    1
   288   132   133    1
   289   132   135    1
   290   132   298    1
   291   133   134    1
   292   133   299    1
   293   133   300    1
   294   134   301    1
   295   135   136    1
   296   135   137    1
   297   135   302    1
   298   136   303    1
   299   137   138    1
   300   137   139    1
   301   137   304    1
   302   138   305    1
   303   139   140    1
   304   139   141    1
   305   139   306    1
   306   140   307    1
   307   141   142    1
   308   141   308    1
   309   142   309    1
